<routes xmlns:xsi="http://www.w3.org/2001/XMLSchema-instance" xsi:noNamespaceSchemaLocation="http://sumo.dlr.de/xsd/routes_file.xsd">
    <person id="tn85" depart="28889.60" departPos="random">
        <walk edges="918447407 235361058#1 235361058#0 26167908#4 26167908#3 26167908#1 26167898#1 26167898#0 30957907" busStop="2467.TA.92-1-N-j24-1.95.R.4" /> 
        <ride from="30957907" to="519913257#1" arrivalPos="15.00" lines="taxi" />
        <walk edges="519913257#1" arrivalPos="25.50" />
    </person>
    <person id="tn32" depart="28958.69" departPos="random">
        <walk edges="185833040#1" busStop="1.TA.92-20-E-j24-1.5.H.5" /> 
        <ride from="185833040#1" to="890169725#1" arrivalPos="3.09" lines="taxi" />
        <walk edges="890169725#1 -890169725#0 890169724#2" arrivalPos="19.95" />
    </person>
    <person id="tn81" depart="29197.95" departPos="random">
        <walk edges="-30957910#1 30957910#0 -977370315 30957908#1 915198678#0" busStop="158.TA.96-260-1-j24-1.72.H.33" /> 
        <ride from="915198678#0" to="519913257#1" arrivalPos="15.00" lines="taxi" />
        <walk edges="519913257#1 519913257#0 916468197 72562096#0 89724876#3 89724876#2 916015459#0" arrivalPos="0.24" />
    </person>
    <person id="tn64" depart="29217.29" departPos="random">
        <walk edges="-268152262#5 268152262#4 268152262#3 -268152262#2 268152262#1 -1115015079#3 1115015079#2 -210208895" busStop="vbs_ski_corviglia_valley_chantarella" />
        <ride from="-210208895" to="209755663#3" arrivalPos="2.55" lines="taxi" />
        <walk edges="209755663#3 209755663#2 -209755663#0 1317098557 59637812#0 59637812#1 -59637812#2 -59637812#3 59637812#4 -59637812#5 59637812#7 59637812#8" arrivalPos="108.49" />
    </person>
    <person id="tn26" depart="29784.39" departPos="random">
        <walk edges="59637812#3 -59637812#2 59637812#1 59637812#0 -58413640#0 -209755663#0 209755663#2 209755663#3" busStop="1136.TA.92-10-J-j24-1.22.R.5" /> 
        <ride from="209755663#3" to="187198083#7" arrivalPos="10.67" lines="taxi" />
        <walk edges="187198083#7 31061889#0 31061889#2 -31061889#3 -31061889#4 186141915#0 -186141915#1 1430507283 -645951511#0 1085798451 1068941219#1" arrivalPos="36.60" />
    </person>
    <person id="tn48" depart="30772.95" departPos="random">
        <walk edges="-116847803 31061889#0 187198083#7" busStop="1.TA.92-20-E-j24-1.5.H.3" /> 
        <ride from="187198083#7" to="519913265#1" arrivalPos="10.00" lines="taxi" />
        <walk edges="519913265#1" arrivalPos="1.20" />
    </person>
    <person id="tn68" depart="30891.43" departPos="random">
        <walk edges="30952515#1 -30952515#0" busStop="2386.TA.92-1-N-j24-1.93.R.1" /> 
        <ride from="-30952515#0" to="1086005529" arrivalPos="102.22" lines="taxi" />
        <walk edges="1086005529 14014136#0 14014136#1 14014136#2 1136237773" arrivalPos="0.15" />
    </person>
    <person id="tn62" depart="30915.84" departPos="random">
        <walk edges="-37804543#2 37804543#3 -37804543#4 -1161282679#1 -1161282679#0 -268146940#6" busStop="262.TA.92-10-J-j24-1.4.H.9" /> 
        <ride from="-268146940#6" to="209755663#3" arrivalPos="2.55" lines="taxi" />
        <walk edges="209755663#3 209755663#2 -209755663#0 1317098557 59637812#0 59637812#1 -59637812#2 -59637812#3 59637812#4 -59637812#5 59637812#7 -59637812#8 59637812#9 -59637812#10 -1086010084 -1086010083 -175833044#1 175833044#0 175833041 241932762#4 241932762#3 -241932762#2 241932762#1 241932762#0 -426408082#1 426408082#0 -426408076#5 426408076#4 426408076#3 -426408076#2 -426408076#1 -426408076#0" arrivalPos="56.14" />
    </person>
    <person id="tn50" depart="30960.73" departPos="random">
        <walk edges="519913257#1" busStop="1.TA.92-4-Q-j24-1.7.R.13" /> 
        <ride from="519913257#1" to="-890169725#1" arrivalPos="3.04" lines="taxi" />
        <walk edges="-890169725#1 -890169725#2 -890169725#3 -890169725#5" arrivalPos="3.92" />
    </person>
    <person id="tn76" depart="32681.32" departPos="random">
        <walk edges="25366042#2 -25366042#1 25366042#0 -268146940#6" busStop="262.TA.92-10-J-j24-1.4.H.9" /> 
        <ride from="-268146940#6" to="30957916#1" arrivalPos="29.75" lines="taxi" />
        <walk edges="30957916#1" arrivalPos="34.13" />
    </person>
    <person id="tn35" depart="33784.81" departPos="random">
        <walk edges="116511577#0 187198083#3" busStop="1.TA.92-20-E-j24-1.5.H.2" /> 
        <ride from="187198083#3" to="209755663#3" arrivalPos="2.55" lines="taxi" />
        <walk edges="209755663#3 209755663#2 -209755663#0 1317098557 -58413641 -150335026#4 150335026#3 150335026#2" arrivalPos="0.26" />
    </person>
    <person id="tn34" depart="33827.64" departPos="random">
        <walk edges="116507539#1 -116507539#0 1136237777 76091870#1 76091870#0 1136237774 76091869#0 -209788013" busStop="459.TA.92-10-J-j24-1.71.H.27" /> 
        <ride from="-209788013" to="-633986854#1" arrivalPos="7.26" lines="taxi" />
        <walk edges="-633986854#1 -68115526#1 68115526#0 -68115532" arrivalPos="47.08" />
    </person>
    <person id="tn49" depart="33886.20" departPos="random">
        <walk edges="-187633169#3" busStop="10.TA.92-20-E-j24-1.1.H.8" /> 
        <ride from="-187633169#3" to="894576901#0" arrivalPos="26.60" lines="taxi" />
        <walk edges="894576901#0" arrivalPos="15.90" />
    </person>
    <person id="tn82" depart="34261.17" departPos="random">
        <walk edges="30050433#0 -30050433#1 -30050433#2" busStop="1008.TA.92-1-N-j24-1.88.H.21" /> 
        <ride from="-30050433#2" to="152517715#3" arrivalPos="7.50" lines="taxi" />
        <walk edges="152517715#3 152517715#1" arrivalPos="33.99" />
    </person>
    <person id="tn30" depart="34296.51" departPos="random">
        <walk edges="-198123925#1 198123925#1 198123925#0 426408073 -175833043 -175833047#2 -175833047#1 175833047#0 175833041 175833044#0 -175833044#1 -1086010083 -1086010084 -59637812#10 59637812#9 -59637812#8 59637812#7 -59637812#5 59637812#4 -59637812#3 -59637812#2 59637812#1 59637812#0 -58413640#0 -209755663#0 209755663#2 209755663#3" busStop="1136.TA.92-10-J-j24-1.22.R.5" /> 
        <ride from="209755663#3" to="30957907" arrivalPos="553.86" lines="taxi" />
        <walk edges="30957907 26167898#0 26167898#1 -26167908#1 26167908#3 26167908#4 235361058#0 235361058#1" arrivalPos="77.69" />
    </person>
    <person id="tn11" depart="34366.98" departPos="random">
        <walk edges="-256959704#0 256959704#2" busStop="1822.TA.92-2-L-j24-1.33.R.0" /> 
        <ride from="256959704#2" to="1426892794#3" arrivalPos="11.14" lines="taxi" />
        <walk edges="1426892794#3 391649038#2" arrivalPos="6.32" />
    </person>
    <person id="tn88" depart="35263.26" departPos="random">
        <walk edges="769993301#5 19724261 170952324#0 170952324#1" busStop="1679.TA.92-1-N-j24-1.90.R.0" /> 
        <ride from="170952324#1" to="519913265#1" arrivalPos="10.00" lines="taxi" />
        <walk edges="519913265#1" arrivalPos="1.65" />
    </person>
    <person id="tn0" depart="35482.39" departPos="random">
        <walk edges="-1083277954 62065386" busStop="1.TA.96-290-3-j24-1.1.H.0" /> 
        <ride from="62065386" to="430248865#10" arrivalPos="19.03" lines="taxi" />
        <walk edges="430248865#10 430248865#9 -430248865#8 430248865#7 1054486961#0 -1054486961#1 1054486961#2" arrivalPos="373.15" />
    </person>
    <person id="tn74" depart="35846.06" departPos="random">
        <walk edges="88717666#4 -88717666#3 88717666#2 88717666#1 96461180#5" busStop="114.TA.92-9-H-j24-1.10.H.8" /> 
        <ride from="96461180#5" to="30957916#1" arrivalPos="29.75" lines="taxi" />
        <walk edges="30957916#1" arrivalPos="14.75" />
    </person>
    <person id="tn63" depart="35863.86" departPos="random">
        <walk edges="-268146971#2" busStop="2386.TA.92-1-N-j24-1.93.R.3" /> 
        <ride from="-268146971#2" to="209755663#3" arrivalPos="2.55" lines="taxi" />
        <walk edges="209755663#3 209755663#2 -209755663#0 1317098557 59637812#0 59637812#1 -59637812#2 -59637812#3 59637812#4 -59637812#5 59637812#7 -59637812#8 59637812#9 -59637812#10 -1086010084 -1086010083 -175833044#1 175833044#0 175833041 241932762#4 241932762#3 -241932762#2 241932762#1 241932762#0 -426408082#1 426408082#0 -426408076#5 426408076#4 426408076#3 -426408076#2 -426408076#1 278156729#5 278156729#4 278156729#3" arrivalPos="91.12" />
    </person>
    <person id="tn243" depart="36202.95" departPos="random">
        <walk edges="-72562019#2 72562019#2 -72562019#1 72562019#0 30952515#0" busStop="459.TA.92-10-J-j24-1.71.H.20" /> 
        <ride from="30952515#0" to="519913261#1" arrivalPos="15.00" lines="taxi" />
        <walk edges="519913261#1" arrivalPos="1.31" />
    </person>
    <person id="tn33" depart="36262.18" departPos="random">
        <walk edges="-182550686#0 -182550686#1 18888058 -1068735330#0 -1068735330#1" busStop="459.TA.92-10-J-j24-1.71.H.21" /> 
        <ride from="-1068735330#1" to="1426892794#3" arrivalPos="11.14" lines="taxi" />
        <walk edges="1426892794#3 71759543#0 -71759543#1 71759543#2 -71759543#3 522706570#0 -522706566#1 522706566#0 -522706560#1 522703215#2" arrivalPos="0.10" />
    </person>
    <person id="tn166" depart="36326.27" departPos="random">
        <walk edges="1116543561#3 -1116543561#2 -1116543561#1 1116543561#0 152385705#2 152385705#1 -152385705#0 -25303487#4" busStop="1008.TA.92-1-N-j24-1.88.H.19" /> 
        <ride from="-25303487#4" to="519913257#1" arrivalPos="15.00" lines="taxi" />
        <walk edges="519913257#1" arrivalPos="8.79" />
    </person>
    <person id="tn116" depart="36424.84" departPos="random">
        <walk edges="187633173#1 -187633173#0 187633169#4 -187633169#3" busStop="10.TA.92-20-E-j24-1.1.H.8" /> 
        <ride from="-187633169#3" to="519913263#1" arrivalPos="15.00" lines="taxi" />
        <walk edges="519913263#1" arrivalPos="17.95" />
    </person>
    <person id="tn194" depart="36429.67" departPos="random">
        <walk edges="-819945220#2 -30050433#3 -30050433#2" busStop="1008.TA.92-1-N-j24-1.88.H.21" /> 
        <ride from="-30050433#2" to="519913261#1" arrivalPos="15.00" lines="taxi" />
        <walk edges="519913261#1" arrivalPos="26.62" />
    </person>
    <person id="tn246" depart="36446.89" departPos="random">
        <walk edges="152516783#1 152516783#2 152516783#3 152516783#4 25412020#0 25412019 152337236#1 -41595601#5 41595601#4 41595601#3 -41595601#2 41595601#0 819945210#0 -1467922383 819945211 -819942944#4 819942944#3 819942944#2 -152520535 1068735337 819942945#2 -819942945#0 1068735342#1 1068735342#0 -47578286 120840712#0 903531446 120840710 897592613 904728442 519913257#0 519913257#1" arrivalPos="23.59" />
    </person>
    <person id="tn176" depart="36462.52" departPos="random">
        <walk edges="1466236176 96461180#6 -96461180#5" busStop="1128.TA.92-9-H-j24-1.12.R.0" /> 
        <ride from="-96461180#5" to="519913263#1" arrivalPos="15.00" lines="taxi" />
        <walk edges="519913263#1" arrivalPos="25.16" />
    </person>
    <person id="tn191" depart="36464.16" departPos="random">
        <walk edges="-317053074 -30957914#2 -30957914#1 30957914#0 170952322#1" busStop="2.TA.92-4-Q-j24-1.8.R.13" /> 
        <ride from="170952322#1" to="519913257#1" arrivalPos="15.00" lines="taxi" />
        <walk edges="519913257#1" arrivalPos="11.35" />
    </person>
    <person id="tn229" depart="36541.29" departPos="random">
        <walk edges="210208895 -210208895" busStop="vbs_ski_corviglia_valley_chantarella" />
        <ride from="-210208895" to="519913257#1" arrivalPos="15.00" lines="taxi" />
        <walk edges="519913257#1" arrivalPos="15.58" />
    </person>
    <person id="tn105" depart="36572.23" departPos="random">
        <walk edges="256959704#0 -256959704#0 256959704#2" busStop="1822.TA.92-2-L-j24-1.33.R.0" /> 
        <ride from="256959704#2" to="519913261#1" arrivalPos="15.00" lines="taxi" />
        <walk edges="519913261#1" arrivalPos="6.71" />
    </person>
    <person id="tn113" depart="36634.78" departPos="random">
        <walk edges="-116715856 -116715858 18887954#0" busStop="1.TA.92-20-E-j24-1.5.H.4" /> 
        <ride from="18887954#0" to="519913257#1" arrivalPos="15.00" lines="taxi" />
        <walk edges="519913257#1" arrivalPos="0.93" />
    </person>
    <person id="tn158" depart="36676.92" departPos="random">
        <walk edges="175791807#1 -175791807#1 1158102646 175791806#0 -175791806#1 -170940321#0" busStop="1679.TA.92-1-N-j24-1.90.R.1" /> 
        <ride from="-170940321#0" to="519913265#1" arrivalPos="10.00" lines="taxi" />
        <walk edges="519913265#1" arrivalPos="8.27" />
    </person>
    <person id="tn52" depart="36840.52" departPos="random">
        <walk edges="88717666#5 88717666#4 -88717666#3 88717666#2 88717666#1 96461180#5" busStop="114.TA.92-9-H-j24-1.10.H.8" /> 
        <ride from="96461180#5" to="365973802" arrivalPos="24.53" lines="taxi" />
        <walk edges="365973802 -1162538599#1 -1162538599#2 1162538599#3" arrivalPos="18.86" />
    </person>
    <person id="tn232" depart="37008.03" departPos="random">
        <walk edges="30050433#3 -30050433#2" busStop="1008.TA.92-1-N-j24-1.88.H.21" /> 
        <ride from="-30050433#2" to="519913263#1" arrivalPos="15.00" lines="taxi" />
        <walk edges="519913263#1" arrivalPos="4.51" />
    </person>
    <person id="tn123" depart="37025.76" departPos="random">
        <walk edges="1161282679#5 -1161282679#4 -1161282679#3 1161282679#2 -37804543#4 37804543#3 -37804543#2 -37804543#1 37804543#0 -120840712#3 -47578286 120840712#0 268146935#0 894516575 903495401 519913259 519913263#1" arrivalPos="27.11" />
    </person>
    <person id="tn106" depart="37192.41" departPos="random">
        <walk edges="426408076#5 -426408076#5 426408082#0 -426408082#1 241932762#0 241932762#1 -241932762#2 241932762#3 -241932762#4 175833041 175833044#0 -175833044#1 -1086010083 -1086010084 -59637812#10 59637812#9 -59637812#8 59637812#7 -59637812#5 59637812#4 -59637812#3 -59637812#2 59637812#1 59637812#0 -58413640#0 -209755663#0 209755663#2 209755663#3" busStop="1136.TA.92-10-J-j24-1.22.R.5" /> 
        <ride from="209755663#3" to="519913257#1" arrivalPos="15.00" lines="taxi" />
        <walk edges="519913257#1" arrivalPos="0.85" />
    </person>
    <person id="tn200" depart="37226.79" departPos="random">
        <walk edges="152385705#2 152385705#1 -152385705#0 -25303487#4" busStop="1008.TA.92-1-N-j24-1.88.H.19" /> 
        <ride from="-25303487#4" to="519913263#1" arrivalPos="15.00" lines="taxi" />
        <walk edges="519913263#1" arrivalPos="19.41" />
    </person>
    <person id="tn192" depart="37261.83" departPos="random">
        <walk edges="-188727260#1 188730896#0 69347933#1 69347933#0 1068735334 -25303488#4" busStop="1286.TA.92-2-L-j24-1.22.R.4" /> 
        <ride from="-25303488#4" to="519913265#1" arrivalPos="10.00" lines="taxi" />
        <walk edges="519913265#1" arrivalPos="9.08" />
    </person>
    <person id="tn230" depart="37298.74" departPos="random">
        <walk edges="204540721#0 -268146940#4 268146940#3 268146940#2 -578147406 1005048062#1 -1005048061#0 1005048061#1 -1005048061#2 -152522410#1 819942940#1 819942940#0 -1005052428#2 1005052428#1 -41595601#5 41595601#4 41595601#3 -41595601#2 41595601#0 819945210#0 -1467922383 819945211 -819942944#4 819942944#3 819942944#2 -152520535 1068735337 819942945#2 -819942945#0 1068735342#1 1068735342#0 -47578286 120840712#0 903531446 120840710 897592613 519913261#0 519913261#1" arrivalPos="3.67" />
    </person>
    <person id="tn112" depart="37464.88" departPos="random">
        <walk edges="-116077719#0 116077719#1 -116847803 31061889#0 187198083#7" busStop="1.TA.92-20-E-j24-1.5.H.3" /> 
        <ride from="187198083#7" to="519913263#1" arrivalPos="15.00" lines="taxi" />
        <walk edges="519913263#1" arrivalPos="3.55" />
    </person>
    <person id="tn55" depart="37574.78" departPos="random">
        <walk edges="-152385705#2 -30957910#2 -30957910#1 30957910#0 -977370315 30957908#1 915198678#0" busStop="158.TA.96-260-1-j24-1.72.H.33" /> 
        <ride from="915198678#0" to="890169725#1" arrivalPos="3.09" lines="taxi" />
        <walk edges="890169725#1 -890169723#0 -890169723#1 890169723#2 -1036672006#0 -1036672006#1 391653985#1 1036672007 1036672004#0 -1036672004#1 391653990#0 -391653990#1 -391653990#2 1163547104#1 1163547104#0 -434037661#2 434037661#1 890155723#1 -890155723#0" arrivalPos="456.03" />
    </person>
    <person id="tn251" depart="37664.02" departPos="random">
        <walk edges="191253662#4 -191253662#4 191253662#5 191253662#6 -191253662#7 -1068735332#3 1068735330#7" busStop="2386.TA.92-1-N-j24-1.93.R.0" /> 
        <ride from="1068735330#7" to="519913261#1" arrivalPos="15.00" lines="taxi" />
        <walk edges="519913261#1" arrivalPos="27.34" />
    </person>
    <person id="tn181" depart="37682.30" departPos="random">
        <walk edges="1068735336#2 -1068735336#1 1068735336#0 25303490 819945209 -1467922383 819945211 -819942944#4 819942944#3 819942944#2 -152520535 1068735337 819942945#2 -819942945#0 1068735342#1 1068735342#0 -47578286 120840712#0 903531446 120840710 897592613 904728442 519913257#0 519913257#1" arrivalPos="7.56" />
    </person>
    <person id="tn98" depart="37694.75" departPos="random">
        <walk edges="152517715#0 25303487#6 25303487#5 -25303487#4" busStop="1008.TA.92-1-N-j24-1.88.H.19" /> 
        <ride from="-25303487#4" to="30952515#0" arrivalPos="5.29" lines="taxi" />
        <walk edges="30952515#0 72562019#0 72562019#1" arrivalPos="1.58" />
    </person>
    <person id="tn216" depart="37775.13" departPos="random">
        <walk edges="-188730896#5 -188730896#6 740109140" busStop="vbs_ski_corviglia_valley_chasellas" />
        <ride from="740109140" to="519913265#1" arrivalPos="10.00" lines="taxi" />
        <walk edges="519913265#1" arrivalPos="4.61" />
    </person>
    <person id="tn66" depart="37806.18" departPos="random">
        <walk edges="-1113452970#0 1113452970#0 1115020158" busStop="1034.TA.92-2-L-j24-1.15.H.12" /> 
        <ride from="1115020158" to="56240189#0" arrivalPos="27.49" lines="taxi" />
        <walk edges="56240189#0 -188063062" arrivalPos="10.89" />
    </person>
    <person id="tn71" depart="37954.00" departPos="random">
        <walk edges="-30984018#5 30984018#4 -30984018#3 -30984018#2 -30984018#1 30984018#0 30957906 1068735330#7" busStop="2386.TA.92-1-N-j24-1.93.R.0" /> 
        <ride from="1068735330#7" to="30957916#1" arrivalPos="29.75" lines="taxi" />
        <walk edges="30957916#1 -96461188 30957932#0 -30957932#1 30957932#2" arrivalPos="21.21" />
    </person>
    <person id="tn154" depart="38162.87" departPos="random">
        <walk edges="-188731354#1 -1428300393#0 1188934794 188730896#1 188730896#0 69347933#1 69347933#0 1068735334 -25303488#4" busStop="1286.TA.92-2-L-j24-1.22.R.4" /> 
        <ride from="-25303488#4" to="519913261#1" arrivalPos="15.00" lines="taxi" />
        <walk edges="519913261#1" arrivalPos="23.01" />
    </person>
    <person id="tn203" depart="38187.63" departPos="random">
        <walk edges="-152387429 152387429 -152385705#0 -25303487#4" busStop="1008.TA.92-1-N-j24-1.88.H.19" /> 
        <ride from="-25303487#4" to="519913257#1" arrivalPos="15.00" lines="taxi" />
        <walk edges="519913257#1" arrivalPos="2.55" />
    </person>
    <person id="tn155" depart="38294.04" departPos="random">
        <walk edges="196750043#3 -196750043#2 196750043#1 -196750043#0 -196749915#2 -196749915#1 196749915#0 188730896#3 -188730896#4 188730896#5 -188730896#6 740109140" busStop="vbs_ski_corviglia_valley_chasellas" />
        <ride from="740109140" to="519913257#1" arrivalPos="15.00" lines="taxi" />
        <walk edges="519913257#1" arrivalPos="19.12" />
    </person>
    <person id="tn165" depart="38295.46" departPos="random">
        <walk edges="1188934794 188730896#1 188730896#0 69347933#1 69347933#0 1068735334 -25303488#4" busStop="1286.TA.92-2-L-j24-1.22.R.4" /> 
        <ride from="-25303488#4" to="519913265#1" arrivalPos="10.00" lines="taxi" />
        <walk edges="519913265#1" arrivalPos="19.62" />
    </person>
    <person id="tn135" depart="38302.63" departPos="random">
        <walk edges="170952322#0 170940321#1 170940321#0" busStop="1008.TA.92-1-N-j24-1.88.H.22" /> 
        <ride from="170940321#0" to="519913257#1" arrivalPos="15.00" lines="taxi" />
        <walk edges="519913257#1" arrivalPos="17.06" />
    </person>
    <person id="tn144" depart="38311.62" departPos="random">
        <walk edges="154772010 154770319#4 -25303488#4" busStop="1286.TA.92-2-L-j24-1.22.R.4" /> 
        <ride from="-25303488#4" to="519913265#1" arrivalPos="10.00" lines="taxi" />
        <walk edges="519913265#1" arrivalPos="18.96" />
    </person>
    <person id="tn250" depart="38494.28" departPos="random">
        <walk edges="268146971#2 -268146971#2" busStop="2386.TA.92-1-N-j24-1.93.R.3" /> 
        <ride from="-268146971#2" to="519913261#1" arrivalPos="15.00" lines="taxi" />
        <walk edges="519913261#1" arrivalPos="26.51" />
    </person>
    <person id="tn180" depart="38505.82" departPos="random">
        <walk edges="-235361058#1 235361058#1 235361058#0 26167908#4 26167908#3 26167908#1 26167898#1 26167898#0 30957907" busStop="2467.TA.92-1-N-j24-1.95.R.4" /> 
        <ride from="30957907" to="519913257#1" arrivalPos="15.00" lines="taxi" />
        <walk edges="519913257#1" arrivalPos="27.47" />
    </person>
    <person id="tn227" depart="38527.56" departPos="random">
        <walk edges="-268146971#1 -268146971#2" busStop="2386.TA.92-1-N-j24-1.93.R.3" /> 
        <ride from="-268146971#2" to="519913257#1" arrivalPos="15.00" lines="taxi" />
        <walk edges="519913257#1" arrivalPos="8.81" />
    </person>
    <person id="tn148" depart="38593.71" departPos="random">
        <walk edges="-154770319#4 -25303488#4" busStop="1286.TA.92-2-L-j24-1.22.R.4" /> 
        <ride from="-25303488#4" to="519913263#1" arrivalPos="15.00" lines="taxi" />
        <walk edges="519913263#1" arrivalPos="13.96" />
    </person>
    <person id="tn244" depart="38594.13" departPos="random">
        <walk edges="-152517443#2 819945209 -1467922383 819945211 -819942944#4 819942944#3 819942944#2 -152520535 1068735337 819942945#2 -819942945#0 1068735342#1 1068735342#0 -47578286 120840712#0 903531446 120840710 897592613 904728442 519913257#0 519913257#1" arrivalPos="16.60" />
    </person>
    <person id="tn197" depart="38634.72" departPos="random">
        <walk edges="196750043#0 -196749915#2 -196749915#1 196749915#0 188730896#3 -188730896#4 188730896#5 -188730896#6 740109140" busStop="vbs_ski_corviglia_valley_chasellas" />
        <ride from="740109140" to="519913265#1" arrivalPos="10.00" lines="taxi" />
        <walk edges="519913265#1" arrivalPos="4.62" />
    </person>
    <person id="tn141" depart="38646.68" departPos="random">
        <walk edges="819942940#0 -1005052428#2 1005052428#1 -41595601#5 41595601#4 41595601#3 -41595601#2 41595601#0 819945210#0 -1467922383 819945211 -819942944#4 819942944#3 819942944#2 -152520535 1068735337 819942945#2 -819942945#0 1068735342#1 1068735342#0 -47578286 120840712#0 268146935#0 894516575 903495401 519913265#1" arrivalPos="26.18" />
    </person>
    <person id="tn102" depart="38755.62" departPos="random">
        <walk edges="-1324238128 890169725#3 -890169725#2 890169725#1" busStop="48.TA.96-290-0-j24-1.17.R.9" /> 
        <ride from="890169725#1" to="519913257#1" arrivalPos="15.00" lines="taxi" />
        <walk edges="519913257#1" arrivalPos="5.25" />
    </person>
    <person id="tn7" depart="38861.11" departPos="random">
        <walk edges="-1083273110#1 -1083273110#2 -1083273110#3 -1085583302#0 1083273109 1083299692 123066460 1083273108#2" busStop="48.TA.96-290-0-j24-1.17.R.10" /> 
        <ride from="1083273108#2" to="1068941219#7" arrivalPos="18.33" lines="taxi" />
        <walk edges="1068941219#7" arrivalPos="67.58" />
    </person>
    <person id="tn37" depart="38951.42" departPos="random">
        <walk edges="-1068735328#1 1068735328#0 182095936#1 1136239035#0 1136239035#1 -209788015 1219863759 1219863760#1 664380228#1 185833040#2 185833040#1" busStop="1.TA.92-20-E-j24-1.5.H.5" /> 
        <ride from="185833040#1" to="-894849663" arrivalPos="34.23" lines="taxi" />
        <walk edges="-894849663 894849663" arrivalPos="12.47" />
    </person>
    <person id="tn95" depart="39012.73" departPos="random">
        <walk edges="1161282679#4 -1161282679#4 -1161282679#5 -1161282679#6" busStop="262.TA.92-10-J-j24-1.4.H.8" /> 
        <ride from="-1161282679#6" to="-268146971#2" arrivalPos="37.39" lines="taxi" />
        <walk edges="-268146971#2" arrivalPos="2.29" />
    </person>
    <person id="tn56" depart="39631.21" departPos="random">
        <walk edges="-1318101191#1 232471144#2 232471144#1 -232471144#0 -1127470773 14014151 888359128#3 268776830#0 -268776830#1 1189801663 916015460#0 916015460#1 89724876#3 72562096#0 916468197 519913257#0 519913257#1" busStop="1.TA.92-4-Q-j24-1.7.R.13" /> 
        <ride from="519913257#1" to="890169725#1" arrivalPos="3.09" lines="taxi" />
        <walk edges="890169725#1 -890169723#0 -890169723#1 890169723#2 -1036672006#0 -1036672006#1 391653985#1 1036672007 1036672004#0" arrivalPos="3.53" />
    </person>
    <person id="tn369" depart="39709.27" departPos="random">
        <walk edges="1115015078#3 1115015077#1 -1115015077#2 391952926#1 391952926#2 -391952926#3 -39830434#2 39830434#1 39830434#0 268146940#3 -268146940#4 -268146940#5 -268146940#6" busStop="262.TA.92-10-J-j24-1.4.H.9" /> 
        <ride from="-268146940#6" to="740109140" arrivalPos="20.48" lines="taxi" />
        <walk edges="740109140 -188730896#6 -188730896#5" arrivalPos="28.70" />
    </person>
    <person id="tn392" depart="39820.65" departPos="random">
        <walk edges="894576901#0 25412019" busStop="262.TA.92-10-J-j24-1.4.H.10" /> 
        <ride from="25412019" to="62065386" arrivalPos="7.50" lines="taxi" />
        <walk edges="62065386 120839520 -41157381 171771447#1 171771447#2 -171771447#3 171771447#4" arrivalPos="47.47" />
    </person>
    <person id="tn352" depart="39906.36" departPos="random">
        <walk edges="152331922#0 -1113054109 -819945212 -819942944#4 819942944#3" busStop="1008.TA.92-1-N-j24-1.88.H.15" /> 
        <ride from="819942944#3" to="-894905824" arrivalPos="13.28" lines="taxi" />
        <walk edges="-894905824 1068735318#0 -1068735318#1 -1068735318#2 -256959702#0" arrivalPos="4.40" />
    </person>
    <person id="tn308" depart="39950.79" departPos="random">
        <walk edges="208825827#0 -1086010096" busStop="1136.TA.92-10-J-j24-1.22.R.2" /> 
        <ride from="-1086010096" to="56240189#0" arrivalPos="27.49" lines="taxi" />
        <walk edges="56240189#0 -188063062" arrivalPos="3.41" />
    </person>
    <person id="tn333" depart="40121.70" departPos="random">
        <walk edges="-30952483#5 -30952483#4 30952483#3 30952483#2 -30952483#1 30952483#0 1068735330#1" busStop="1136.TA.92-10-J-j24-1.22.R.13" /> 
        <ride from="1068735330#1" to="519913257#1" arrivalPos="15.00" lines="taxi" />
        <walk edges="519913257#1 531892740#1" arrivalPos="45.64" />
    </person>
    <person id="tn27" depart="40189.98" departPos="random">
        <walk edges="56240189#7 -56240189#7" busStop="459.TA.92-10-J-j24-1.71.H.30" /> 
        <ride from="-56240189#7" to="25418588#1" arrivalPos="7.50" lines="taxi" />
        <walk edges="25418588#1" arrivalPos="38.99" />
    </person>
    <person id="tn96" depart="40204.36" departPos="random">
        <walk edges="-25366042#2 -25366042#1 25366042#0 -268146940#6" busStop="262.TA.92-10-J-j24-1.4.H.9" /> 
        <ride from="-268146940#6" to="-268146971#2" arrivalPos="37.39" lines="taxi" />
        <walk edges="-268146971#2" arrivalPos="27.85" />
    </person>
    <person id="tn101" depart="40217.02" departPos="random">
        <walk edges="429497063#0 429497063#1" busStop="1.TA.96-290-3-j24-1.1.H.3" /> 
        <ride from="429497063#1" to="519913265#1" arrivalPos="10.00" lines="taxi" />
        <walk edges="519913265#1" arrivalPos="2.36" />
    </person>
    <person id="tn260" depart="40680.92" departPos="random">
        <walk edges="1110581123 -120829163#0 -120829163#1 1083351550#0" busStop="48.TA.96-290-0-j24-1.17.R.7" /> 
        <ride from="1083351550#0" to="430248865#1" arrivalPos="7.50" lines="taxi" />
        <walk edges="430248865#1 -1069366697" arrivalPos="20.51" />
    </person>
    <person id="tn44" depart="40761.94" departPos="random">
        <walk edges="1050853710 -1050853709#0" busStop="2467.TA.92-1-N-j24-1.95.R.0" /> 
        <ride from="-1050853709#0" to="76091869#1" arrivalPos="12.69" lines="taxi" />
        <walk edges="76091869#1" arrivalPos="111.42" />
    </person>
    <person id="tn8" depart="41068.79" departPos="random">
        <walk edges="741319024#1 -741319024#1 -741319024#2 349618630#0 -349618630#1 -1083277951#0 1083277951#1 391661586" busStop="14.TA.96-290-0-j24-1.25.H.12" /> 
        <ride from="391661586" to="-1113164891" arrivalPos="19.64" lines="taxi" />
        <walk edges="-1113164891" arrivalPos="5.18" />
    </person>
    <person id="tn399" depart="41214.82" departPos="random">
        <walk edges="235361058#1 235361058#0 26167908#4 26167908#3 26167908#1 26167898#1 26167898#0 -30957907" busStop="1008.TA.92-1-N-j24-1.88.H.25" /> 
        <ride from="-30957907" to="-819942944#4" arrivalPos="39.13" lines="taxi" />
        <walk edges="-819942944#4 819945211 -1467922383 819945209 25303490 1068735336#0 -1068735336#1 -1068735336#2 1068735336#3" arrivalPos="5.72" />
    </person>
    <person id="tn40" depart="41335.12" departPos="random">
        <walk edges="-1041495497 76091870#1 76091870#2 1136237781 -117614806 -187198083#0 187198083#1 -187198083#2 -187198083#3 187198083#5 187198083#6 -187198083#7 31061888#1 18887954#0 -18887954#1 -18887954#2 185833040#0 -185833040#1 185833040#2 664380228#1 -1219863760#1 1219863759 -209788015 1136239035#1 1136239035#0 182095936#1" arrivalPos="0.02" />
    </person>