<routes xmlns:xsi="http://www.w3.org/2001/XMLSchema-instance" xsi:noNamespaceSchemaLocation="http://sumo.dlr.de/xsd/routes_file.xsd">
    <person id="tn645" depart="28833.54" departPos="random">
        <ride from="-56195874#1" to="519913265#1" arrivalPos="10.00" lines="taxi" />
        <walk edges="519913265#1 519913265#0 -903531446 -120840712#0 -47578286 -1068735342#0" arrivalPos="13.28" />
    </person>
    <person id="tn1340" depart="28844.99" departPos="random">
        <ride from="888359128#5" to="391661586" arrivalPos="62.32" lines="taxi" />
        <walk edges="391661586 -1083277951#1" arrivalPos="2.63" />
    </person>
    <person id="tn2167" depart="28847.47" departPos="random">
        <ride from="-191253662#7" to="519913265#1" arrivalPos="10.00" lines="taxi" />
        <walk edges="519913265#1" arrivalPos="1.25" />
    </person>
    <person id="tn2621" depart="28886.44" departPos="random">
        <ride from="-916559232#1" to="30952515#0" arrivalPos="5.29" lines="taxi" />
        <walk edges="30952515#0 72562019#0 72562019#1" arrivalPos="3.47" />
    </person>
    <person id="tn2553" depart="28894.22" departPos="random">
        <ride from="25303411#1" to="30952515#0" arrivalPos="5.29" lines="taxi" />
        <walk edges="30952515#0 72562019#0 72562019#1" arrivalPos="4.17" />
    </person>
    <person id="tn1189" depart="28914.32" departPos="random">
        <ride from="-19738790#0" to="1050853710" arrivalPos="26.41" lines="taxi" />
        <walk edges="1050853710 -1050853709#1" arrivalPos="0.14" />
    </person>
    <person id="tn56" depart="28921.78" departPos="random">
        <ride from="522706570#1" to="-96461182#0" arrivalPos="7.50" lines="taxi" />
        <walk edges="-96461182#0 1472605488#1 1472605488#0 1201541125 52959697#0 52959697#1 52959697#2 -52959697#3 56085325#0 -56085325#1 56085325#2 56085325#3 -56085325#4" arrivalPos="51.77" />
    </person>
    <person id="tn975" depart="28925.00" departPos="random">
        <ride from="-19725986#1" to="-210208895" arrivalPos="18.71" lines="taxi" />
        <walk edges="-210208895" arrivalPos="12.47" />
    </person>
    <person id="tn2845" depart="28943.44" departPos="random">
        <ride from="239178470#0" to="-1113164891" arrivalPos="19.64" lines="taxi" />
        <walk edges="-1113164891 1041492060#1" arrivalPos="8.60" />
    </person>
    <person id="tn2522" depart="28987.96" departPos="random">
        <ride from="-1068735337" to="25303487#3" arrivalPos="46.08" lines="taxi" />
        <walk edges="25303487#3 -25303487#3" arrivalPos="56.11" />
    </person>
    <person id="tn2591" depart="28988.84" departPos="random">
        <ride from="-69347933#0" to="30957907" arrivalPos="553.86" lines="taxi" />
        <walk edges="30957907 26167898#0 26167898#1 -26167908#1 26167908#3 26167908#4 235361058#0 235361058#1" arrivalPos="0.83" />
    </person>
    <person id="tn223" depart="29010.76" departPos="random">
        <ride from="56240279#2" to="1083273108#2" arrivalPos="7.50" lines="taxi" />
        <walk edges="1083273108#2 123066460" arrivalPos="81.76" />
    </person>
    <person id="tn1051" depart="29011.69" departPos="random">
        <ride from="-30952535#0" to="209755663#3" arrivalPos="2.55" lines="taxi" />
        <walk edges="209755663#3 209755663#2 -209755663#0 1317098557 59637812#0 59637812#1 -59637812#2 -59637812#3 59637812#4 -59637812#5 59637812#7 -59637812#8 59637812#9 -59637812#10 -1086010084 -1086010083 -175833044#1 175833044#0 175833041 175833047#0 -175833047#1 -175833047#2 -175833043 -426408073 -198123925#0" arrivalPos="20.93" />
    </person>
    <person id="tn1558" depart="29016.05" departPos="random">
        <ride from="-189023055#3" to="209755663#3" arrivalPos="2.55" lines="taxi" />
        <walk edges="209755663#3 209755663#2 -209755663#0 1317098557 59637812#0 59637812#1 -59637812#2 -59637812#3 59637812#4 -59637812#5 59637812#7 -59637812#8 59637812#9 -59637812#10 -1086010084 -1086010083 -175833044#1 175833044#0 175833041 241932762#4 241932762#3 -241932762#2 241932762#1 241932762#0 -426408082#1 426408082#0 -426408076#5 426408076#4 426408076#3 -426408076#2 -426408076#1" arrivalPos="77.68" />
    </person>
    <person id="tn2361" depart="29025.90" departPos="random">
        <ride from="196519206#0" to="519913265#1" arrivalPos="10.00" lines="taxi" />
        <walk edges="519913265#1" arrivalPos="15.53" />
    </person>
    <person id="tn1987" depart="29028.86" departPos="random">
        <ride from="-152516779#3" to="-187633169#3" arrivalPos="7.50" lines="taxi" />
        <walk edges="-187633169#3 187633169#3" arrivalPos="15.94" />
    </person>
    <person id="tn1118" depart="29042.15" departPos="random">
        <ride from="-25418590#8" to="1068941219#7" arrivalPos="18.33" lines="taxi" />
        <walk edges="1068941219#7" arrivalPos="6.35" />
    </person>
    <person id="tn2122" depart="29071.60" departPos="random">
        <ride from="-232471144#1" to="170952324#1" arrivalPos="7.50" lines="taxi" />
        <walk edges="170952324#1 170952324#0 -19724261" arrivalPos="6.15" />
    </person>
    <person id="tn1015" depart="29084.35" departPos="random">
        <ride from="1136237771" to="894576903" arrivalPos="21.39" lines="taxi" />
        <walk edges="894576903 -1136143562#1 1136143562#0 890180063#0 -890180063#1" arrivalPos="10.48" />
    </person>
    <person id="tn1388" depart="29087.53" departPos="random">
        <ride from="152390930#1" to="430248865#10" arrivalPos="19.03" lines="taxi" />
        <walk edges="430248865#10 430248865#9" arrivalPos="130.80" />
    </person>
    <person id="tn2235" depart="29106.26" departPos="random">
        <ride from="30957910#2" to="519913257#1" arrivalPos="15.00" lines="taxi" />
        <walk edges="519913257#1" arrivalPos="1.32" />
    </person>
    <person id="tn2163" depart="29122.01" departPos="random">
        <ride from="382202904#2" to="519913257#1" arrivalPos="15.00" lines="taxi" />
        <walk edges="519913257#1" arrivalPos="14.68" />
    </person>
    <person id="tn92" depart="29122.82" departPos="random">
        <ride from="-391657350#1" to="18887954#0" arrivalPos="6.62" lines="taxi" />
        <walk edges="18887954#0 -116507538#0" arrivalPos="4.52" />
    </person>
    <person id="tn2883" depart="29125.19" departPos="random">
        <ride from="-382202903#2" to="740109140" arrivalPos="20.48" lines="taxi" />
        <walk edges="740109140" arrivalPos="42.81" />
    </person>
    <person id="tn1449" depart="29132.06" departPos="random">
        <ride from="196520689#0" to="-1443580513#2" arrivalPos="13.80" lines="taxi" />
        <walk edges="-1443580513#2 -1443580513#3 1443580513#4" arrivalPos="12.09" />
    </person>
    <person id="tn2762" depart="29134.66" departPos="random">
        <ride from="-25303487#1" to="25412019" arrivalPos="14.90" lines="taxi" />
        <walk edges="25412019 25412020#0 152516783#4 152516783#3 152516783#2 152516783#1" arrivalPos="50.98" />
    </person>
    <person id="tn434" depart="29139.76" departPos="random">
        <ride from="1086010083" to="-894849663" arrivalPos="34.23" lines="taxi" />
        <walk edges="-894849663 894849663" arrivalPos="72.93" />
    </person>
    <person id="tn556" depart="29140.80" departPos="random">
        <ride from="-58413640#0" to="1068735330#1" arrivalPos="7.04" lines="taxi" />
        <walk edges="1068735330#1 30952483#0 -30952483#1 30952490#0 -30952523#0 -30952523#1 30952523#2 30952523#3" arrivalPos="14.15" />
    </person>
    <person id="tn2377" depart="29152.80" departPos="random">
        <ride from="-914487470" to="519913257#1" arrivalPos="15.00" lines="taxi" />
        <walk edges="519913257#1" arrivalPos="15.58" />
    </person>
    <person id="tn1674" depart="29153.36" departPos="random">
        <ride from="1113136564#1" to="209755663#3" arrivalPos="2.55" lines="taxi" />
        <walk edges="209755663#3 209755663#2 -209755663#0 1317098557 -58413641 -150335026#4 150335026#3 -150335026#2 150335026#1 150335026#0" arrivalPos="9.55" />
    </person>
    <person id="tn1925" depart="29161.68" departPos="random">
        <ride from="-819945220#2" to="76091869#1" arrivalPos="12.69" lines="taxi" />
        <walk edges="76091869#1" arrivalPos="17.43" />
    </person>
    <person id="tn89" depart="29197.95" departPos="random">
        <ride from="-391999126#1" to="76091869#1" arrivalPos="12.69" lines="taxi" />
        <walk edges="76091869#1 76091869#0" arrivalPos="14.73" />
    </person>
    <person id="tn2905" depart="29204.34" departPos="random">
        <ride from="-239178470#1" to="-210208895" arrivalPos="18.71" lines="taxi" />
        <walk edges="-210208895" arrivalPos="38.52" />
    </person>
    <person id="tn2936" depart="29214.54" departPos="random">
        <ride from="-170940321#1" to="-210208895" arrivalPos="18.71" lines="taxi" />
        <walk edges="-210208895" arrivalPos="8.02" />
    </person>
    <person id="tn71" depart="29217.29" departPos="random">
        <ride from="-391653986#0" to="-894849663" arrivalPos="34.23" lines="taxi" />
        <walk edges="-894849663 894849663" arrivalPos="78.59" />
    </person>
    <person id="tn1486" depart="29220.35" departPos="random">
        <ride from="819942945#0" to="-1443580513#2" arrivalPos="13.80" lines="taxi" />
        <walk edges="-1443580513#2 -1443580513#3 1443580513#4" arrivalPos="0.38" />
    </person>
    <person id="tn2120" depart="29222.97" departPos="random">
        <ride from="-191253662#7" to="519913257#1" arrivalPos="15.00" lines="taxi" />
        <walk edges="519913257#1 519913257#0 916468197 916468198#1 916468198#2 89724876#5 89724876#6 89724876#1" arrivalPos="12.11" />
    </person>
    <person id="tn2082" depart="29248.80" departPos="random">
        <ride from="-268146940#5" to="-268146971#2" arrivalPos="37.39" lines="taxi" />
        <walk edges="-268146971#2 -268146971#3 268146971#4" arrivalPos="5.69" />
    </person>
    <person id="tn1254" depart="29253.10" departPos="random">
        <ride from="-196519206#1" to="977972909" arrivalPos="68.09" lines="taxi" />
        <walk edges="977972909 -315159485#0 -315159485#1 315159485#2 315159485#3 315159485#4 -315159485#5 1136143576 -70703176 -87104682 257424360" arrivalPos="7.72" />
    </person>
    <person id="tn1213" depart="29264.31" departPos="random">
        <ride from="-897592613" to="430248865#3" arrivalPos="180.32" lines="taxi" />
        <walk edges="430248865#3 -430248865#4 430248865#5 430248865#6" arrivalPos="18.60" />
    </person>
    <person id="tn1752" depart="29268.80" departPos="random">
        <ride from="916468195#0" to="-187633169#3" arrivalPos="7.50" lines="taxi" />
        <walk edges="-187633169#3 187633169#3" arrivalPos="24.80" />
    </person>
    <person id="tn1800" depart="29277.60" departPos="random">
        <ride from="-72562019#1" to="30957916#1" arrivalPos="29.75" lines="taxi" />
        <walk edges="30957916#1 -96461188 30957932#0 -30957932#1 30957932#2 -30957932#3 30957932#4 30957932#5 30957932#6" arrivalPos="64.26" />
    </person>
    <person id="tn1797" depart="29287.44" departPos="random">
        <ride from="268146940#4" to="30957916#1" arrivalPos="29.75" lines="taxi" />
        <walk edges="30957916#1 -96461188 30957932#0 -30957932#1 30957932#2 -30957932#3" arrivalPos="7.99" />
    </person>
    <person id="tn1367" depart="29290.24" departPos="random">
        <ride from="-191253662#0" to="430248865#1" arrivalPos="7.50" lines="taxi" />
        <walk edges="430248865#1 1069366697" arrivalPos="8.62" />
    </person>
    <person id="tn1299" depart="29292.23" departPos="random">
        <ride from="-120840705#4" to="120829159" arrivalPos="10.00" lines="taxi" />
        <walk edges="120829159 1083356001 614559903 171771430 550605634#1 550605634#0" arrivalPos="15.81" />
    </person>
    <person id="tn2247" depart="29299.58" departPos="random">
        <ride from="-915198676#0" to="519913265#1" arrivalPos="10.00" lines="taxi" />
        <walk edges="519913265#1" arrivalPos="15.67" />
    </person>
    <person id="tn2246" depart="29302.49" departPos="random">
        <ride from="-26167908#0" to="519913261#1" arrivalPos="15.00" lines="taxi" />
        <walk edges="519913261#1" arrivalPos="6.84" />
    </person>
    <person id="tn2089" depart="29304.40" departPos="random">
        <ride from="-30050433#1" to="894576901#0" arrivalPos="26.60" lines="taxi" />
        <walk edges="894576901#0 -41595603#2 819942940#0" arrivalPos="7.95" />
    </person>
    <person id="tn2709" depart="29314.41" departPos="random">
        <ride from="-191378082#0" to="1050853710" arrivalPos="26.41" lines="taxi" />
        <walk edges="1050853710 -1050853709#1" arrivalPos="0.29" />
    </person>
    <person id="tn677" depart="29330.66" departPos="random">
        <ride from="-894849663" to="1161282679#6" arrivalPos="13.55" lines="taxi" />
        <walk edges="1161282679#6 -916559232#0 -916559232#1 -267559167#0 267559167#1 267559167#2 1161282678#0 1161282678#1 -1161282677" arrivalPos="21.59" />
    </person>
    <person id="tn1345" depart="29336.72" departPos="random">
        <ride from="-152517715#0" to="894576903" arrivalPos="21.39" lines="taxi" />
        <walk edges="894576903 -25418325#1" arrivalPos="10.25" />
    </person>
    <person id="tn558" depart="29341.66" departPos="random">
        <ride from="14014131#0" to="76091869#1" arrivalPos="12.69" lines="taxi" />
        <walk edges="76091869#1 76091869#0 1136237774 -76091870#0 76091870#1 1136237777 -116507539#0 -116507539#1" arrivalPos="18.89" />
    </person>
    <person id="tn2694" depart="29348.26" departPos="random">
        <ride from="-96461180#0" to="1050853710" arrivalPos="26.41" lines="taxi" />
        <walk edges="1050853710 -1050853709#1" arrivalPos="2.24" />
    </person>
    <person id="tn1844" depart="29359.83" departPos="random">
        <ride from="769993301#0" to="30957916#1" arrivalPos="29.75" lines="taxi" />
        <walk edges="30957916#1 -96461188 30957932#0 -30957932#1 30957932#2 -30957932#3 30957933" arrivalPos="84.73" />
    </person>
    <person id="tn1795" depart="29378.52" departPos="random">
        <ride from="-189023059#0" to="25418590#1" arrivalPos="2.00" lines="taxi" />
        <walk edges="25418590#1 30957918#0" arrivalPos="30.55" />
    </person>
    <person id="tn2464" depart="29395.98" departPos="random">
        <ride from="-268146944#1" to="519913265#1" arrivalPos="10.00" lines="taxi" />
        <walk edges="519913265#1 519913265#0 903531446" arrivalPos="6.66" />
    </person>
    <person id="tn2827" depart="29404.05" departPos="random">
        <ride from="-30957915" to="25412019" arrivalPos="14.90" lines="taxi" />
        <walk edges="25412019 25412020#0 152516783#4 152516783#3 152516783#2 152516783#1" arrivalPos="30.47" />
    </person>
    <person id="tn1491" depart="29464.55" departPos="random">
        <ride from="88717666#4" to="-1443580513#2" arrivalPos="13.80" lines="taxi" />
        <walk edges="-1443580513#2 -1443580513#3 1443580513#4" arrivalPos="7.47" />
    </person>
    <person id="tn1038" depart="29473.69" departPos="random">
        <ride from="18888058" to="-1443580513#2" arrivalPos="13.80" lines="taxi" />
        <walk edges="-1443580513#2 -1443580513#3 1443580513#4" arrivalPos="2.17" />
    </person>
    <person id="tn631" depart="29474.64" departPos="random">
        <ride from="14014133#1" to="18887954#0" arrivalPos="6.62" lines="taxi" />
        <walk edges="18887954#0 116715858 -147218475#2" arrivalPos="27.10" />
    </person>
    <person id="tn2325" depart="29479.44" departPos="random">
        <ride from="-25303412" to="519913257#1" arrivalPos="15.00" lines="taxi" />
        <walk edges="519913257#1" arrivalPos="5.25" />
    </person>
    <person id="tn2026" depart="29490.36" departPos="random">
        <ride from="819945220#0" to="519913257#1" arrivalPos="15.00" lines="taxi" />
        <walk edges="519913257#1 519913257#0 916468197 72562096#0 89724876#3 916015460#1 916015460#0 1189801663 -268776830#1 268776830#0 888359128#3 14014151 -1127470773 -232471144#0 -232471144#1 232471144#2 -1318101191#1 -1318101192 189023055#0 -189023055#1 189023055#3 -189023055#4" arrivalPos="138.88" />
    </person>
    <person id="tn216" depart="29493.28" departPos="random">
        <ride from="56085325#0" to="62065386" arrivalPos="7.50" lines="taxi" />
        <walk edges="62065386 120839520 -41157381 171771447#1 171771447#2 -171771447#3 890086160#0" arrivalPos="1.42" />
    </person>
    <person id="tn2578" depart="29539.67" departPos="random">
        <ride from="-25303487#6" to="-30957907" arrivalPos="66.03" lines="taxi" />
        <walk edges="-30957907 26167898#0 26167898#1 -26167908#1 26167908#3 26167908#4 235361058#0 235361058#1" arrivalPos="3.82" />
    </person>
    <person id="tn1684" depart="29539.85" departPos="random">
        <ride from="-209049898" to="209755663#3" arrivalPos="2.55" lines="taxi" />
        <walk edges="209755663#3 209755663#2 -209755663#0 1317098557 -58413641 -150335026#4 150335026#3 -150335026#2 150335026#1 150335026#0" arrivalPos="11.25" />
    </person>
    <person id="tn2075" depart="29549.49" departPos="random">
        <ride from="1435131959" to="1161282679#6" arrivalPos="13.55" lines="taxi" />
        <walk edges="1161282679#6 -1161282679#5 -1161282679#4 -1161282679#3" arrivalPos="43.53" />
    </person>
    <person id="tn1411" depart="29585.92" departPos="random">
        <ride from="-37804543#3" to="391661586" arrivalPos="62.32" lines="taxi" />
        <walk edges="391661586 -1083277951#1" arrivalPos="3.42" />
    </person>
    <person id="tn1255" depart="29586.61" departPos="random">
        <ride from="754285231" to="1426892794#3" arrivalPos="11.14" lines="taxi" />
        <walk edges="1426892794#3 71759543#0 -71759543#1 71759543#2 -71759543#3 522706570#0 -522706566#1 522706566#0 -522706560#1 -522703215#1" arrivalPos="1.92" />
    </person>
    <person id="tn1921" depart="29594.20" departPos="random">
        <ride from="915198665#1" to="18887954#0" arrivalPos="6.62" lines="taxi" />
        <walk edges="18887954#0 116715858 -147218475#2" arrivalPos="5.08" />
    </person>
    <person id="tn530" depart="29600.84" departPos="random">
        <ride from="59637812#10" to="56240189#0" arrivalPos="27.49" lines="taxi" />
        <walk edges="56240189#0 -188063062" arrivalPos="18.90" />
    </person>
    <person id="tn2490" depart="29643.70" departPos="random">
        <ride from="127791073" to="-210208895" arrivalPos="18.71" lines="taxi" />
        <walk edges="-210208895" arrivalPos="15.81" />
    </person>
    <person id="tn681" depart="29653.00" departPos="random">
        <ride from="56195874#2" to="268146940#6" arrivalPos="7.77" lines="taxi" />
        <walk edges="268146940#6 268146940#5 -268146940#4 268146940#3 39830434#0 39830434#1 -39830434#2 25366042#6 25366042#5" arrivalPos="148.63" />
    </person>
    <person id="tn580" depart="29663.89" departPos="random">
        <ride from="25418244#0" to="25418590#1" arrivalPos="2.00" lines="taxi" />
        <walk edges="25418590#1 -25418590#2 25418590#4 -25418590#5 25418590#6" arrivalPos="6.73" />
    </person>
    <person id="tn1451" depart="29676.52" departPos="random">
        <ride from="916015459#0" to="-1443580513#2" arrivalPos="13.80" lines="taxi" />
        <walk edges="-1443580513#2 -1443580513#3 1443580513#4" arrivalPos="7.30" />
    </person>
    <person id="tn660" depart="29682.65" departPos="random">
        <ride from="-973459742#0" to="-819942944#4" arrivalPos="39.13" lines="taxi" />
        <walk edges="-819942944#4 819945211 -1467922383 819945209 25303490 1068735336#0 -1068735336#1 -1068735336#2 -926207664 209325456" arrivalPos="56.33" />
    </person>
    <person id="tn2102" depart="29695.14" departPos="random">
        <ride from="196520689#1" to="519913257#1" arrivalPos="15.00" lines="taxi" />
        <walk edges="519913257#1 519913257#0 916468197 916468198#1 916468198#2 89724876#5 1189801664 1189801665 916468195#0 916468196#0 631302139#4 -631302139#3 631302139#2 -631302139#1" arrivalPos="18.39" />
    </person>
    <person id="tn1808" depart="29703.21" departPos="random">
        <ride from="-1005048061#0" to="30952515#0" arrivalPos="5.29" lines="taxi" />
        <walk edges="30952515#0 72562019#0 -72562019#1 72562019#2 72562019#3 72562019#4 1435131955#1 -1435131955#2 -894841757 -209049898 -209049897" arrivalPos="6.36" />
    </person>
    <person id="tn1154" depart="29716.75" departPos="random">
        <ride from="-31061886#2" to="519913261#1" arrivalPos="15.00" lines="taxi" />
        <walk edges="519913261#1" arrivalPos="2.27" />
    </person>
    <person id="tn1183" depart="29725.54" departPos="random">
        <ride from="30952510#0" to="1050853710" arrivalPos="26.41" lines="taxi" />
        <walk edges="1050853710 -1050853709#1" arrivalPos="2.34" />
    </person>
    <person id="tn1145" depart="29738.60" departPos="random">
        <ride from="-116575510#2" to="519913257#1" arrivalPos="15.00" lines="taxi" />
        <walk edges="519913257#1" arrivalPos="10.07" />
    </person>
    <person id="tn1473" depart="29739.32" departPos="random">
        <ride from="268146944#0" to="-1443580513#2" arrivalPos="13.80" lines="taxi" />
        <walk edges="-1443580513#2 -1443580513#3 1443580513#4" arrivalPos="3.74" />
    </person>
    <person id="tn1127" depart="29755.37" departPos="random">
        <ride from="1086005528" to="-268146971#2" arrivalPos="37.39" lines="taxi" />
        <walk edges="-268146971#2 -268146971#3" arrivalPos="5.77" />
    </person>
    <person id="tn749" depart="29771.72" departPos="random">
        <ride from="-256959703#2" to="30952515#0" arrivalPos="5.29" lines="taxi" />
        <walk edges="30952515#0 72562019#0 72562019#1" arrivalPos="4.79" />
    </person>
    <person id="tn639" depart="29773.43" departPos="random">
        <ride from="-25418326#1" to="740109140" arrivalPos="20.48" lines="taxi" />
        <walk edges="740109140 -188730894#0 -188730894#1 1428300392#0 -1428300392#1 -196519206#0 196519206#1" arrivalPos="112.62" />
    </person>
    <person id="tn1662" depart="29780.84" departPos="random">
        <ride from="-30957910#0" to="-96461182#0" arrivalPos="7.50" lines="taxi" />
        <walk edges="-96461182#0" arrivalPos="17.72" />
    </person>
    <person id="tn2035" depart="29792.72" departPos="random">
        <ride from="154770319#4" to="-819942944#4" arrivalPos="39.13" lines="taxi" />
        <walk edges="-819942944#4 819945212" arrivalPos="7.10" />
    </person>
    <person id="tn646" depart="29800.58" departPos="random">
        <ride from="973459742#1" to="-25303488#4" arrivalPos="184.55" lines="taxi" />
        <walk edges="-25303488#4 25303488#3" arrivalPos="165.55" />
    </person>
    <person id="tn1407" depart="29804.91" departPos="random">
        <ride from="-72562019#2" to="391661586" arrivalPos="62.32" lines="taxi" />
        <walk edges="391661586 -1083277951#1" arrivalPos="3.05" />
    </person>
    <person id="tn1561" depart="29805.49" departPos="random">
        <ride from="152516783#2" to="209755663#3" arrivalPos="2.55" lines="taxi" />
        <walk edges="209755663#3 209755663#2 -209755663#0 1317098557 -58413641 -150335026#4 150335026#3 150335026#2" arrivalPos="25.21" />
    </person>
    <person id="tn1025" depart="29827.29" departPos="random">
        <ride from="1136237769" to="391661586" arrivalPos="62.32" lines="taxi" />
        <walk edges="391661586 -1083277951#1" arrivalPos="1.54" />
    </person>
    <person id="tn933" depart="29852.45" departPos="random">
        <ride from="-59637812#3" to="-894849663" arrivalPos="34.23" lines="taxi" />
        <walk edges="-894849663 -25418244#0" arrivalPos="5.11" />
    </person>
    <person id="tn2599" depart="29864.57" departPos="random">
        <ride from="382202903#3" to="740109140" arrivalPos="20.48" lines="taxi" />
        <walk edges="740109140 -196520689#0" arrivalPos="196.70" />
    </person>
    <person id="tn1905" depart="29864.87" departPos="random">
        <ride from="191253662#3" to="25418588#1" arrivalPos="7.50" lines="taxi" />
        <walk edges="25418588#1" arrivalPos="2.96" />
    </person>
    <person id="tn1953" depart="29869.78" departPos="random">
        <ride from="-196520689#2" to="30957916#1" arrivalPos="29.75" lines="taxi" />
        <walk edges="30957916#1" arrivalPos="13.87" />
    </person>
    <person id="tn259" depart="29880.92" departPos="random">
        <ride from="150277078#5" to="-1443580513#2" arrivalPos="13.80" lines="taxi" />
        <walk edges="-1443580513#2 -1443580513#3 1443580513#4" arrivalPos="1.35" />
    </person>
    <person id="tn1113" depart="29895.54" departPos="random">
        <ride from="30952523#6" to="18887954#0" arrivalPos="6.62" lines="taxi" />
        <walk edges="18887954#0 116715858 -147218475#2" arrivalPos="24.85" />
    </person>
    <person id="tn135" depart="29903.27" departPos="random">
        <ride from="1104475589#1" to="519913261#1" arrivalPos="15.00" lines="taxi" />
        <walk edges="519913261#1" arrivalPos="17.73" />
    </person>
    <person id="tn1695" depart="29904.78" departPos="random">
        <ride from="-37804543#0" to="-96461182#0" arrivalPos="7.50" lines="taxi" />
        <walk edges="-96461182#0" arrivalPos="26.65" />
    </person>
    <person id="tn1690" depart="29914.40" departPos="random">
        <ride from="1115015078#3" to="209755663#3" arrivalPos="2.55" lines="taxi" />
        <walk edges="209755663#3 209755663#2 -209755663#0 1317098557 -58413641 -150335026#4 150335026#3 -150335026#2 150335026#1 150335026#0" arrivalPos="19.87" />
    </person>
    <person id="tn1803" depart="29917.23" departPos="random">
        <ride from="916559232#0" to="1068735330#1" arrivalPos="7.04" lines="taxi" />
        <walk edges="1068735330#1 1068735330#0 1068735329#2 -430606783" arrivalPos="0.09" />
    </person>
    <person id="tn999" depart="29922.19" departPos="random">
        <ride from="-256959700#0" to="740109140" arrivalPos="20.48" lines="taxi" />
        <walk edges="740109140" arrivalPos="48.03" />
    </person>
    <person id="tn2916" depart="29922.36" departPos="random">
        <ride from="88723957#2" to="740109140" arrivalPos="20.48" lines="taxi" />
        <walk edges="740109140" arrivalPos="30.80" />
    </person>
    <person id="tn2986" depart="29923.89" departPos="random">
        <ride from="-1441721435" to="740109140" arrivalPos="20.48" lines="taxi" />
        <walk edges="740109140" arrivalPos="59.05" />
    </person>
    <person id="tn1703" depart="29930.11" departPos="random">
        <ride from="-196749915#2" to="-96461182#0" arrivalPos="7.50" lines="taxi" />
        <walk edges="-96461182#0" arrivalPos="16.53" />
    </person>
    <person id="tn1621" depart="29945.86" departPos="random">
        <ride from="209325454#1" to="-96461182#0" arrivalPos="7.50" lines="taxi" />
        <walk edges="-96461182#0 1472605488#1 1472605488#0 1201541125 52959697#0 52959697#1 52959697#2 -52959697#3 56085325#0 -56085325#1" arrivalPos="88.16" />
    </person>
    <person id="tn1474" depart="29951.04" departPos="random">
        <ride from="-188730896#2" to="-1443580513#2" arrivalPos="13.80" lines="taxi" />
        <walk edges="-1443580513#2 -1443580513#3 1443580513#4" arrivalPos="3.82" />
    </person>
    <person id="tn751" depart="29953.78" departPos="random">
        <ride from="59637812#1" to="30957907" arrivalPos="553.86" lines="taxi" />
        <walk edges="30957907 26167898#0 26167898#1 -26167908#1 26167908#3 26167908#4 235361058#0 235361058#1" arrivalPos="56.40" />
    </person>
    <person id="tn2823" depart="29960.40" departPos="random">
        <ride from="-915198676#0" to="25412019" arrivalPos="14.90" lines="taxi" />
        <walk edges="25412019 25412020#0 152516783#4 152516783#3 152516783#2 152516783#1" arrivalPos="21.21" />
    </person>
    <person id="tn340" depart="29969.09" departPos="random">
        <ride from="-256959703#1" to="208825826" arrivalPos="41.20" lines="taxi" />
        <walk edges="208825826 -208825827#0 208825827#2 -208825827#3 208825827#4" arrivalPos="40.28" />
    </person>
    <person id="tn988" depart="30007.21" departPos="random">
        <ride from="-56085325#0" to="-268146971#2" arrivalPos="37.39" lines="taxi" />
        <walk edges="-268146971#2 -268146971#3" arrivalPos="2.76" />
    </person>
    <person id="tn2330" depart="30039.18" departPos="random">
        <ride from="89726026#3" to="519913265#1" arrivalPos="10.00" lines="taxi" />
        <walk edges="519913265#1" arrivalPos="12.79" />
    </person>
    <person id="tn1686" depart="30054.90" departPos="random">
        <ride from="916468196#1" to="-96461182#0" arrivalPos="7.50" lines="taxi" />
        <walk edges="-96461182#0" arrivalPos="19.07" />
    </person>
    <person id="tn66" depart="30056.12" departPos="random">
        <ride from="1083276371#0" to="209755663#3" arrivalPos="2.55" lines="taxi" />
        <walk edges="209755663#3 209755663#2 -209755663#0 1317098557 59637812#0 59637812#1 -59637812#2 -59637812#3 59637812#4 -59637812#5 59637812#7 -59637812#8 59637812#9 -59637812#10 -1086010084" arrivalPos="19.89" />
    </person>
    <person id="tn1574" depart="30071.34" departPos="random">
        <ride from="-501346486" to="-96461182#0" arrivalPos="7.50" lines="taxi" />
        <walk edges="-96461182#0 1472605488#1 1472605488#0 1201541125 52959697#0 52959697#1 52959697#2 -52959697#3 56085325#0 -56085325#1 56085325#2 56085325#3 -56085325#4 56085325#5" arrivalPos="36.57" />
    </person>
    <person id="tn2862" depart="30077.34" departPos="random">
        <ride from="39830434#1" to="740109140" arrivalPos="20.48" lines="taxi" />
        <walk edges="740109140" arrivalPos="48.13" />
    </person>
    <person id="tn229" depart="30098.74" departPos="random">
        <ride from="241932758" to="430248865#1" arrivalPos="7.50" lines="taxi" />
        <walk edges="430248865#1 1069366697" arrivalPos="4.80" />
    </person>
    <person id="tn1219" depart="30104.34" departPos="random">