<routes xmlns:xsi="http://www.w3.org/2001/XMLSchema-instance" xsi:noNamespaceSchemaLocation="http://sumo.dlr.de/xsd/routes_file.xsd">
    <person id="645" depart="28833.54" departPos="random">
        <walk edges="-56195874#1 1472605488#1 1472605488#2" busStop="1193.TA.92-10-J-j24-1.22.R.6" /> 
        <ride busStop="1.TA.92-4-Q-j24-1.1.R.13" lines="61.TA.96-290-0-j24-1.30.R" intended="61.TA.96-290-0-j24-1.30.R.0" depart="30230.00" /> 
        <walk edges="519913257#1 519913257#0 -904728442 -897592613 -120840710 -903531446 -120840712#0 -47578286 -1068735342#0" arrivalPos="10.62" />
    </person>
    <person id="1340" depart="28844.99" departPos="random">
        <walk edges="888359128#5 888359128#4 888359128#3 268776830#0 -268776830#1 1189801663 916015460#0 916015460#1 89724876#3 72562096#0 916468197 -904728442 -897592613 519913263#0 519913263#1" busStop="1323.TA.92-1-N-j24-1.88.H.14" /> 
        <ride busStop="14.TA.96-290-0-j24-1.25.H.12" lines="20.TA.96-290-0-j24-1.10.H" intended="26.TA.96-290-0-j24-1.10.H.0" depart="29690.00" /> 
        <walk edges="391661586 -1083277951#1" arrivalPos="0.16" />
    </person>
    <person id="2167" depart="28847.47" departPos="random">
        <walk edges="-191253662#7 -1068735332#3 1068735330#7 -1068735330#5 1068735330#4 -1068735330#2 1068735330#1" busStop="1193.TA.92-10-J-j24-1.22.R.13" /> 
        <ride busStop="1333.TA.92-2-L-j24-1.22.R.5" lines="1905.TA.92-2-L-j24-1.33.R" intended="1905.TA.92-2-L-j24-1.33.R.0" depart="29210.00" /> 
        <walk edges="-1115020158 -1115020159 1068735336#3 -1068735336#2 -1068735336#1 1068735336#0 25303490 819945209 -1467922383 819945211 -819942944#4 819942944#3 819942944#2 -152520535 1068735337 819942945#2 -819942945#0 1068735342#1 1068735342#0 -47578286 120840712#0 268146935#0 894516575 903495401 519913265#1" arrivalPos="20.38" />
    </person>
    <person id="2621" depart="28886.44" departPos="random">
        <walk edges="-916559232#1 -916559232#0 -1161282679#6 -1161282679#5 -1161282679#4 -1161282679#3 1161282679#2 -1161282679#1 -1161282679#0 268146940#6 268146940#5 -268146940#4 268146940#3 268146940#2 -578147406 1005048062#1 -1005048061#0 1005048061#1 -1005048061#2 -152522410#1 819942940#1 819942940#0 -1005052428#2 1005052428#1 -41595601#5 41595601#4 41595601#3 -41595601#2 41595601#0 819945210#0 819945209 -152517443#2 -152517443#1" busStop="1323.TA.92-1-N-j24-1.88.H.17" /> 
        <ride busStop="1323.TA.92-1-N-j24-1.88.H.23" lines="1793.TA.92-6-I-j24-1.11.H" intended="1851.TA.92-6-I-j24-1.11.H.0" depart="29930.00" /> 
        <ride busStop="2463.TA.92-1-N-j24-1.93.R.0" lines="333.TA.92-6-I-j24-1.3.H" intended="401.TA.92-6-I-j24-1.3.H.0" depart="30950.00" /> 
        <walk edges="1068735330#7 30957906 -1493002173 -72562018 72562019#0 72562019#1" arrivalPos="3.85" />
    </person>
    <person id="2553" depart="28894.22" departPos="random">
        <walk edges="25303411#1 -914487470 -1132581922 1441721435 -382202904#4 382202904#3 -382202904#2 -382202904#1 382202904#0 -170952322#1 170952322#0 170952324#5 -170952324#3 170952324#2 -170952324#1" busStop="1323.TA.92-1-N-j24-1.88.H.23" /> 
        <ride busStop="1323.TA.92-1-N-j24-1.88.H.25" lines="660.TA.92-1-N-j24-1.81.H" intended="736.TA.92-1-N-j24-1.81.H.0" depart="29750.00" /> 
        <walk edges="-30957907 1219872251 235361066 -1435131955#2 1435131955#1 72562019#4 72562019#3 72562019#2 72562019#1" arrivalPos="5.26" />
    </person>
    <person id="1189" depart="28914.32" departPos="random">
        <walk edges="-19738790#0 19738790#1 25418588#1" busStop="1323.TA.92-1-N-j24-1.88.H.27" /> 
        <ride busStop="2545.TA.92-1-N-j24-1.95.R.0" lines="2337.TA.92-6-I-j24-1.16.H" intended="2337.TA.92-6-I-j24-1.16.H.0" depart="29090.00" /> 
        <walk edges="-1050853709#0 1050853709#1 -1050853709#1" arrivalPos="0.02" />
    </person>
    <person id="56" depart="28921.78" departPos="random">
        <walk edges="522706570#1 522706570#0 71759543#3 71759543#2 -71759543#1 71759543#0 1426892796 1426892784 1426892791 1426892783 1426892797 -1024855417 -1426892804 1424064286 -550605628 -550605631 -120829160 120839519#1 1083356001 120829159" busStop="14.TA.96-290-0-j24-1.25.H.11" /> 
        <ride busStop="36.TA.96-290-0-j24-1.27.R.12" lines="48.TA.96-290-0-j24-1.17.R" intended="48.TA.96-290-0-j24-1.17.R.0" depart="30830.00" /> 
        <walk edges="977972909 -315159485#0 -315159485#1 315159485#2 315159485#3 315159485#4 -315159485#5 -315159485#6 1068729371#0 -1068729371#1 -1068729371#2 170952349#0 -170952349#1 -977972910" busStop="1193.TA.92-10-J-j24-1.22.R.0" /> 
        <ride busStop="1193.TA.92-10-J-j24-1.22.R.6" lines="48.TA.96-290-0-j24-1.17.R" intended="48.TA.96-290-0-j24-1.17.R.0" depart="33050.00" /> 
        <walk edges="1472605488#2 1472605488#1 1472605488#0 1201541125 52959697#0 52959697#1 52959697#2 -52959697#3 -56085325#0 -56085325#1 56085325#2 56085325#3 -56085325#4" arrivalPos="46.87" />
    </person>
    <person id="975" depart="28925.00" departPos="random">
        <walk edges="-19725986#1 198123925#1 198123925#0 426408073 -175833043 -175833047#2 -175833047#1 175833047#0 175833041 175833044#0 -175833044#1 -1086010083 -1086010084 -59637812#10 59637812#9 -59637812#8 59637812#7 -59637812#5 59637812#4 -59637812#3 -59637812#2 59637812#1 59637812#0 -58413640#0 -209755663#0 209755663#2 209755663#3 -209755663#4 -96461185 1068735318#0 -1068735318#1 -1068735318#2 -256959702#0 -256959702#1 -256959702#2 -150277078#0 150277078#1 -150277078#2 -150277078#3 150277078#4 -150277078#5 -1472605488#0 1472605488#1 1472605488#2" busStop="1193.TA.92-10-J-j24-1.22.R.6" /> 
        <ride busStop="1193.TA.92-10-J-j24-1.22.R.23" lines="2142.TA.92-2-L-j24-1.38.R" intended="2357.TA.92-2-L-j24-1.38.R.0" depart="32030.00" /> 
        <walk edges="268146940#6 268146940#5 -268146940#4 268146940#3 39830434#0 39830434#1 -39830434#2 -391952926#3 391952926#2 391952926#1 -1115015077#2 1115015077#1 1115015078#3 -1115015078#2 -1115015078#1 1115015078#0 -268152262#6 -268152262#5 268152262#4 268152262#3 -268152262#2 268152262#1 -1115015079#3 1115015079#2 -210208895" arrivalPos="23.49" />
    </person>
    <person id="2845" depart="28943.44" departPos="random">
        <walk edges="239178470#0 -170952324#5 170952322#0 -170952322#1 382202904#0 -382202904#1 -382202904#2 382202904#3 -382202904#4 1441721435 -1132581922 -30957915" busStop="1674.TA.92-1-N-j24-1.90.R.3" /> 
        <ride busStop="1674.TA.92-1-N-j24-1.90.R.6" lines="2746.TA.92-1-N-j24-1.100.R" intended="2858.TA.92-1-N-j24-1.100.R.0" depart="29570.00" /> 
        <walk edges="-819942944#4 819945211 -1467922383 819945210#0 41595601#0 -41595601#2 41595601#3 41595601#4 -41595601#5 -1005052428#1 -1005052428#2 819942942#0 152390930#1 -1005048061#2 1005048061#1 -1005048061#0 1005048062#1 -578147406 -268146940#2 39830434#0 39830434#1 -39830434#2 -391952926#3 391952926#2 391952926#1 -1115015077#2 1115015077#1 1115015078#3 -1115015078#2 -1115015078#1 1115015078#0 -268152262#6 -268152262#5 268152262#4 268152262#3 -268152262#2 268152262#1 -1115015079#3 1115015079#2 -1115015079#0 1115015083 1041492060#1" arrivalPos="8.93" />
    </person>
    <person id="2522" depart="28987.96" departPos="random">
        <walk edges="-1068735337 -152520535 819942944#2 819942944#3" busStop="1323.TA.92-1-N-j24-1.88.H.15" /> 
        <ride busStop="1323.TA.92-1-N-j24-1.88.H.19" lines="660.TA.92-1-N-j24-1.81.H" intended="736.TA.92-1-N-j24-1.81.H.0" depart="29330.00" /> 
        <walk edges="-25303487#4 -25303487#3" arrivalPos="65.94" />
    </person>
    <person id="2591" depart="28988.84" departPos="random">
        <walk edges="-69347933#0 69347933#0 1068735334 25303488#4" busStop="1004.TA.92-2-L-j24-1.15.H.13" /> 
        <ride busStop="506.TA.92-10-J-j24-1.71.H.21" lines="37.TA.92-2-L-j24-1.2.H" intended="37.TA.92-2-L-j24-1.2.H.0" depart="29510.00" /> 
        <walk edges="-1068735330#1 -1068735330#2 1068735330#4 -1068735330#5 -209049905#0 30957906 -1493002173 -72562018 72562019#0 -72562019#1 72562019#2 72562019#3 72562019#4 1435131955#1 -1435131955#2 235361066 1219872251 30957907 26167898#0 26167898#1 -26167908#1 26167908#3 26167908#4 235361058#0 235361058#1" arrivalPos="44.17" />
    </person>
    <person id="223" depart="29010.76" departPos="random">
        <walk edges="56240279#2 -56240279#2 -56240279#4 14014133#4 25418326#0 -25418326#1 1418170811 -56240189#0" busStop="506.TA.92-10-J-j24-1.71.H.31" /> 
        <ride busStop="16.TA.96-290-0-j24-1.26.H.8" lines="20.TA.96-290-0-j24-1.10.H" intended="26.TA.96-290-0-j24-1.10.H.0" depart="31070.00" /> 
        <walk edges="-1083273108#2 123066460" arrivalPos="83.05" />
    </person>
    <person id="1051" depart="29011.69" departPos="random">
        <walk edges="-30952535#0 30952500#0 -1068735330#5 1068735330#4 -1068735330#2 -1068735330#1" busStop="506.TA.92-10-J-j24-1.71.H.21" /> 
        <ride busStop="506.TA.92-10-J-j24-1.71.H.27" lines="37.TA.92-2-L-j24-1.2.H" intended="37.TA.92-2-L-j24-1.2.H.0" depart="29690.00" /> 
        <ride busStop="506.TA.92-10-J-j24-1.71.H.29" lines="20.TA.96-290-0-j24-1.10.H" intended="26.TA.96-290-0-j24-1.10.H.0" depart="30410.00" /> 
        <walk edges="-894905824 -256959704#0 -209755663#4 209755663#3 209755663#2 -209755663#0 1317098557 59637812#0 59637812#1 -59637812#2 -59637812#3 59637812#4 -59637812#5 59637812#7 -59637812#8 59637812#9 -59637812#10 -1086010084 -1086010083 -175833044#1 175833044#0 175833041 175833047#0 -175833047#1 -175833047#2 -175833043 -426408073 -198123925#0" arrivalPos="2.07" />
    </person>
    <person id="1558" depart="29016.05" departPos="random">
        <walk edges="-189023055#3 189023055#3 -189023055#1 189023055#0 -1318101192 -1318101191#1 232471144#2 232471144#1 -232471144#0 -1127470773 14014151 888359128#3 268776830#0 -268776830#1 1189801663 916015460#0 916015460#1 89724876#3 72562096#0 916468197 -904728442 519913261#0 519913261#1" busStop="193.TA.92-1-N-j24-1.77.H.0" /> 
        <ride busStop="1323.TA.92-1-N-j24-1.88.H.15" lines="1200.TA.92-9-H-j24-1.12.R" intended="2168.TA.92-9-H-j24-1.12.R.0" depart="30290.00" /> 
        <ride busStop="1323.TA.92-1-N-j24-1.88.H.25" lines="333.TA.92-6-I-j24-1.3.H" intended="401.TA.92-6-I-j24-1.3.H.0" depart="30530.00" /> 
        <ride busStop="1323.TA.92-1-N-j24-1.88.H.26" lines="1406.TA.92-1-N-j24-1.89.H" intended="1571.TA.92-1-N-j24-1.89.H.0" depart="31610.00" /> 
        <ride busStop="506.TA.92-10-J-j24-1.71.H.29" lines="1004.TA.92-2-L-j24-1.15.H" intended="915.TA.92-2-L-j24-1.15.H.0" depart="31970.00" /> 
        <walk edges="-894905824 -256959704#0 -209755663#4 209755663#3 209755663#2 -209755663#0 1317098557 59637812#0 59637812#1 -59637812#2 -59637812#3 59637812#4 -59637812#5 59637812#7 -59637812#8 59637812#9 -59637812#10 -1086010084 -1086010083 -175833044#1 175833044#0 175833041 241932762#4 241932762#3 -241932762#2 241932762#1 241932762#0 -426408082#1 426408082#0 -426408076#5 426408076#4 426408076#3 -426408076#2 -426408076#1" arrivalPos="88.14" />
    </person>
    <person id="2361" depart="29025.90" departPos="random">
        <walk edges="196519206#0 -1428300392#1 1428300392#0 188730894#1 -188730894#0 740109140 -188730896#6 188730896#5 -188730896#4 188730896#3 188730896#2 188730896#1 188730896#0 69347933#1 69347933#0 1068735334 154770319#4 -154770319#3 154770319#2 154770319#1 154770319#0 25303487#5 25303487#6 -152517715#0 -152517715#1 152517715#3" busStop="1674.TA.92-1-N-j24-1.90.R.5" /> 
        <ride busStop="1323.TA.92-1-N-j24-1.88.H.14" lines="2545.TA.92-1-N-j24-1.95.R" intended="2581.TA.92-1-N-j24-1.95.R.0" depart="31490.00" /> 
        <walk edges="519913263#1 519913263#0 -120840710 519913265#0 519913265#1" arrivalPos="8.42" />
    </person>
    <person id="1987" depart="29028.86" departPos="random">
        <walk edges="-152516779#3 152516779#2 -152516779#0 -152337234#1 152337234#0 25412019" busStop="270.TA.92-10-J-j24-1.4.H.10" /> 
        <ride busStop="1323.TA.92-1-N-j24-1.88.H.26" lines="37.TA.92-2-L-j24-1.2.H" intended="37.TA.92-2-L-j24-1.2.H.0" depart="29390.00" /> 
        <ride busStop="1323.TA.92-1-N-j24-1.88.H.27" lines="660.TA.92-1-N-j24-1.81.H" intended="736.TA.92-1-N-j24-1.81.H.0" depart="30110.00" /> 
        <walk edges="25418588#1 -1050853680 -187633169#0 -187633169#1 -187633169#2 187633169#3" arrivalPos="38.19" />
    </person>
    <person id="1118" depart="29042.15" departPos="random">
        <walk edges="-25418590#8 -25418590#7 25418590#6 -25418590#5 25418590#4 -25418590#2 25418590#1 25418590#0 25418591#0 25418591#1 25418591#2 25418591#3 25418591#4 25418591#5" busStop="2545.TA.92-1-N-j24-1.95.R.1" /> 
        <ride busStop="2545.TA.92-1-N-j24-1.95.R.2" lines="2337.TA.92-6-I-j24-1.16.H" intended="2337.TA.92-6-I-j24-1.16.H.0" depart="29450.00" /> 
        <walk edges="-25418588#1 19738790#1 19738790#0 -1050853679 -19738795 1086005531 1086005530 1136237769 1086005533" busStop="2545.TA.92-1-N-j24-1.95.R.3" /> 
        <ride busStop="2545.TA.92-1-N-j24-1.95.R.4" lines="61.TA.96-290-0-j24-1.30.R" intended="61.TA.96-290-0-j24-1.30.R.0" depart="30710.00" /> 
        <walk edges="30957907 -30957907" busStop="1323.TA.92-1-N-j24-1.88.H.25" /> 
        <ride busStop="196.TA.96-260-1-j24-1.12.R.3" lines="196.TA.96-260-1-j24-1.12.R" intended="196.TA.96-260-1-j24-1.12.R.0" depart="31430.00" /> 
        <walk edges="1068941219#7" arrivalPos="98.90" />
    </person>
    <person id="2122" depart="29071.60" departPos="random">
        <walk edges="-232471144#1 232471144#1 -232471144#0 -1127470773 14014151 888359128#3 268776830#0 -268776830#1 1189801663 916015460#0 916015460#1 89724876#3 89724876#4 89724876#5 1189801664 1189801665 916468195#0 916468196#0 631302139#4 -631302139#3 631302139#2 -631302139#1 -631302139#0 120840705#7 -120840705#6 120840705#5 -120840705#4 -120840705#3 120840705#2 120840705#1 -1113136564#1 -1113136564#0 89726026#3 89726026#2 -89726026#1 -89726026#0 51814854 30957915" busStop="1323.TA.92-1-N-j24-1.88.H.20" /> 
        <ride busStop="1323.TA.92-1-N-j24-1.88.H.23" lines="333.TA.92-6-I-j24-1.3.H" intended="401.TA.92-6-I-j24-1.3.H.0" depart="30710.00" /> 
        <walk edges="-170952324#1 170952324#0 -19724261" arrivalPos="5.79" />
    </person>
    <person id="1015" depart="29084.35" departPos="random">
        <walk edges="1136237771 1136237772 1086005534 -209788013" busStop="506.TA.92-10-J-j24-1.71.H.27" /> 
        <ride busStop="506.TA.92-10-J-j24-1.71.H.29" lines="2337.TA.92-6-I-j24-1.16.H" intended="2337.TA.92-6-I-j24-1.16.H.0" depart="29690.00" /> 
        <ride busStop="506.TA.92-10-J-j24-1.71.H.34" lines="20.TA.96-290-0-j24-1.10.H" intended="26.TA.96-290-0-j24-1.10.H.0" depart="30950.00" /> 
        <walk edges="894576903 -1136143562#1 1136143562#0 890180063#0 -890180063#1" arrivalPos="12.91" />
    </person>
    <person id="1388" depart="29087.53" departPos="random">
        <walk edges="152390930#1 -152522410#1 819942940#1 -41595603#2 894576901#1 894576901#2 25412019" busStop="270.TA.92-10-J-j24-1.4.H.10" /> 
        <ride busStop="506.TA.92-10-J-j24-1.71.H.27" lines="37.TA.92-2-L-j24-1.2.H" intended="37.TA.92-2-L-j24-1.2.H.0" depart="29390.00" /> 
        <ride busStop="16.TA.96-290-0-j24-1.26.H.4" lines="20.TA.96-290-0-j24-1.10.H" intended="26.TA.96-290-0-j24-1.10.H.0" depart="30410.00" /> 
        <walk edges="-430248865#10 430248865#9" arrivalPos="104.15" />
    </person>
    <person id="2235" depart="29106.26" departPos="random">
        <walk edges="30957910#2 -30957910#2 152385705#2 152385705#1 -152385705#0 -25303487#4 25303487#5 25303487#6 -152517715#0 -152517715#1 152517715#3" busStop="1674.TA.92-1-N-j24-1.90.R.5" /> 
        <ride busStop="1323.TA.92-1-N-j24-1.88.H.14" lines="2746.TA.92-1-N-j24-1.100.R" intended="2858.TA.92-1-N-j24-1.100.R.0" depart="29690.00" /> 
        <walk edges="519913263#1 519913263#0 897592613 904728442 519913257#0 519913257#1" arrivalPos="6.77" />
    </person>
    <person id="2163" depart="29122.01" departPos="random">
        <walk edges="382202904#2 -382202904#2 382202904#3 -382202904#4 1441721435 -1132581922 -30957915" busStop="1674.TA.92-1-N-j24-1.90.R.3" /> 
        <ride busStop="1323.TA.92-1-N-j24-1.88.H.14" lines="2746.TA.92-1-N-j24-1.100.R" intended="2858.TA.92-1-N-j24-1.100.R.0" depart="29570.00" /> 
        <walk edges="519913263#1 519913263#0 897592613 904728442 519913257#0 519913257#1" arrivalPos="0.93" />
    </person>
    <person id="92" depart="29122.82" departPos="random">
        <walk edges="-391657350#1 -502426852#0 -502426852#1 502426852#2 -502426852#3 -1083276369#0 -1083276369#1 1083276369#2 -391657356 -502426853 1083276370 -391657351 1006709161 -120829163#0 -120829163#1 1083351550#0" busStop="48.TA.96-290-0-j24-1.17.R.7" /> 
        <ride busStop="36.TA.96-290-0-j24-1.27.R.12" lines="48.TA.96-290-0-j24-1.17.R" intended="48.TA.96-290-0-j24-1.17.R.0" depart="31190.00" /> 
        <walk edges="977972909 -315159485#0 -315159485#1 315159485#2 315159485#3 315159485#4 -315159485#5 -315159485#6 1068729371#0 -1068729371#1 -1068729371#2 170952349#0 -170952349#1 -977972910" busStop="1193.TA.92-10-J-j24-1.22.R.0" /> 
        <ride busStop="2545.TA.92-1-N-j24-1.95.R.3" lines="48.TA.96-290-0-j24-1.17.R" intended="48.TA.96-290-0-j24-1.17.R.0" depart="33050.00" /> 
        <walk edges="1086005533 1136237770 14014136#0 1086005528 -1086005527#0 -147218475#0 147218475#2 -116715858 -116507538#0" arrivalPos="4.44" />
    </person>
    <person id="2883" depart="29125.19" departPos="random">
        <walk edges="-382202903#2 -382202903#3 1441721435 -1132581922 -30957915" busStop="1674.TA.92-1-N-j24-1.90.R.3" /> 
        <ride busStop="1674.TA.92-1-N-j24-1.90.R.4" lines="2746.TA.92-1-N-j24-1.100.R" intended="2858.TA.92-1-N-j24-1.100.R.0" depart="29570.00" /> 
        <walk edges="25303487#3 -25303487#4 154770319#0 154770319#1 154770319#2 -154770319#3 154770319#4 1068735334 69347933#0 -69347933#1 -188730896#0 -188730896#1 -188730896#2 188730896#3 -188730896#4 188730896#5 -188730896#6 740109140" arrivalPos="51.67" />
    </person>
    <person id="1449" depart="29132.06" departPos="random">
        <walk edges="196520689#0 -188730896#6 188730896#5 -188730896#4 188730896#3 188730896#2 188730896#1 188730896#0 69347933#1 69347933#0 1068735334 154770319#4 -154770319#3 154770319#2 154770319#1 154770319#0 -25303487#4" busStop="1323.TA.92-1-N-j24-1.88.H.19" /> 
        <ride busStop="1323.TA.92-1-N-j24-1.88.H.25" lines="333.TA.92-6-I-j24-1.3.H" intended="401.TA.92-6-I-j24-1.3.H.0" depart="30650.00" /> 
        <ride busStop="1323.TA.92-1-N-j24-1.88.H.26" lines="1406.TA.92-1-N-j24-1.89.H" intended="1571.TA.92-1-N-j24-1.89.H.0" depart="31610.00" /> 
        <ride busStop="506.TA.92-10-J-j24-1.71.H.34" lines="1004.TA.92-2-L-j24-1.15.H" intended="915.TA.92-2-L-j24-1.15.H.0" depart="31970.00" /> 
        <walk edges="894576903 -170952349#1 170952349#0 1068729371#2 -1068729371#1 1068729371#0 315159485#6 -315159485#5 -315159485#4 315159485#3 -315159485#2 -315159485#1 315159485#0 -977972909 -501346489#2" busStop="16.TA.96-290-0-j24-1.26.H.1" /> 
        <ride busStop="14.TA.96-290-0-j24-1.25.H.8" lines="20.TA.96-290-0-j24-1.10.H" intended="22.TA.96-290-0-j24-1.10.H.0" depart="35270.00" /> 
        <walk edges="-1443580513#2 -1443580513#3 -1443580512#0 1443580513#4" arrivalPos="12.32" />
    </person>
    <person id="2762" depart="29134.66" departPos="random">
        <walk edges="-25303487#1 25303487#2 -25303487#3 -25303487#4 25303487#5 25303487#6 -152517715#0 -152517715#1 152517715#3" busStop="1674.TA.92-1-N-j24-1.90.R.5" /> 
        <ride busStop="1674.TA.92-1-N-j24-1.90.R.6" lines="2746.TA.92-1-N-j24-1.100.R" intended="2858.TA.92-1-N-j24-1.100.R.0" depart="29690.00" /> 
        <walk edges="-819942944#4 819945211 -1467922383 819945210#0 41595601#0 -41595601#2 41595601#3 41595601#4 -41595601#5 152337236#1 25412019 25412020#0 152516783#4 152516783#3 152516783#2 152516783#1" arrivalPos="1.84" />
    </person>
    <person id="434" depart="29139.76" departPos="random">
        <walk edges="1086010083 -1086010084 -59637812#10 59637812#9 -59637812#8 59637812#7 -59637812#5 59637812#4 -59637812#3 -59637812#2 59637812#1 59637812#0 -58413640#0 -209755663#0 209755663#2 209755663#3 -209755663#4 -256959704#0 256959704#2" busStop="1905.TA.92-2-L-j24-1.33.R.0" /> 
        <ride busStop="2337.TA.92-6-I-j24-1.16.H.35" lines="4700.TA.92-6-I-j24-1.34.R" intended="4755.TA.92-6-I-j24-1.34.R.0" depart="30590.00" /> 
        <walk edges="-894849663 894849663" arrivalPos="56.29" />
    </person>
    <person id="556" depart="29140.80" departPos="random">
        <walk edges="-58413640#0 -209755663#0 209755663#2 209755663#3 -209755663#4 -96461185 1068735318#0 -1068735318#1 -1068735318#2 -256959702#0 -256959702#1 -256959702#2 -150277078#0 150277078#1 -150277078#2 -150277078#3 150277078#4 -150277078#5 -1472605488#0 1472605488#1 1472605488#2" busStop="1193.TA.92-10-J-j24-1.22.R.6" /> 
        <ride busStop="2545.TA.92-1-N-j24-1.95.R.3" lines="61.TA.96-290-0-j24-1.30.R" intended="61.TA.96-290-0-j24-1.30.R.0" depart="30230.00" /> 
        <ride busStop="1193.TA.92-10-J-j24-1.22.R.13" lines="1401.TA.92-2-L-j24-1.27.R" intended="1595.TA.92-2-L-j24-1.27.R.0" depart="30830.00" /> 
        <walk edges="1068735330#1 30952483#0 -30952483#1 30952490#0 -30952523#0 -30952523#1 30952523#2 30952523#3" arrivalPos="11.82" />
    </person>
    <person id="2377" depart="29152.80" departPos="random">
        <walk edges="-914487470 -30957915" busStop="1674.TA.92-1-N-j24-1.90.R.3" /> 
        <ride busStop="1323.TA.92-1-N-j24-1.88.H.14" lines="2746.TA.92-1-N-j24-1.100.R" intended="2858.TA.92-1-N-j24-1.100.R.0" depart="29570.00" /> 
        <walk edges="519913263#1 897620166 894622277 519913257#1" arrivalPos="27.61" />
    </person>
    <person id="1674" depart="29153.36" departPos="random">
        <walk edges="1113136564#1 -1113136564#0 -89726026#3" busStop="1003.TA.92-9-H-j24-1.10.H.3" /> 
        <ride busStop="1323.TA.92-1-N-j24-1.88.H.23" lines="1003.TA.92-9-H-j24-1.10.H" intended="630.TA.92-9-H-j24-1.10.H.0" depart="29210.00" /> 
        <ride busStop="1323.TA.92-1-N-j24-1.88.H.26" lines="660.TA.92-1-N-j24-1.81.H" intended="736.TA.92-1-N-j24-1.81.H.0" depart="29750.00" /> 
        <ride busStop="506.TA.92-10-J-j24-1.71.H.29" lines="20.TA.96-290-0-j24-1.10.H" intended="26.TA.96-290-0-j24-1.10.H.0" depart="30410.00" /> 
        <walk edges="-894905824 -256959704#0 -209755663#4 209755663#3 209755663#2 -209755663#0 1317098557 -58413641 -150335026#4 150335026#3 -150335026#2 150335026#1 150335026#0" arrivalPos="10.65" />
    </person>
    <person id="1925" depart="29161.68" departPos="random">
        <walk edges="-819945220#2 -30050433#3 -30050433#2 -30050433#1 30050433#0 -51814855 170940321#0 -170940321#1 170952324#5 -170952324#3 170952324#2 -170952324#1" busStop="1323.TA.92-1-N-j24-1.88.H.23" /> 
        <ride busStop="1323.TA.92-1-N-j24-1.88.H.26" lines="660.TA.92-1-N-j24-1.81.H" intended="736.TA.92-1-N-j24-1.81.H.0" depart="29750.00" /> 
        <ride busStop="506.TA.92-10-J-j24-1.71.H.27" lines="20.TA.96-290-0-j24-1.10.H" intended="26.TA.96-290-0-j24-1.10.H.0" depart="30410.00" /> 
        <walk edges="-209788013 76091869#1" arrivalPos="90.32" />
    </person>
    <person id="89" depart="29197.95" departPos="random">
        <walk edges="-391999126#1 502426859#4 -502426859#5 -502426860#0 -502426860#1 502426860#3 -308081216 -170952338#0 170952338#1 -170952338#2 170952338#3" busStop="36.TA.96-290-0-j24-1.27.R.11" /> 
        <ride busStop="36.TA.96-290-0-j24-1.27.R.12" lines="48.TA.96-290-0-j24-1.17.R" intended="48.TA.96-290-0-j24-1.17.R.0" depart="32090.00" /> 
        <walk edges="977972909 -315159485#0 -315159485#1 315159485#2 315159485#3 315159485#4 -315159485#5 -315159485#6 1068729371#0 -1068729371#1 -1068729371#2 170952349#0 -170952349#1 -977972910" busStop="1193.TA.92-10-J-j24-1.22.R.0" /> 
        <ride busStop="1193.TA.92-10-J-j24-1.22.R.7" lines="48.TA.96-290-0-j24-1.17.R" intended="48.TA.96-290-0-j24-1.17.R.0" depart="33050.00" /> 
        <walk edges="76091869#1 76091869#0" arrivalPos="27.89" />
    </person>
    <person id="2905" depart="29204.34" departPos="random">
        <walk edges="-239178470#1 239178470#1 239178470#0 -170952324#5 170940321#1 -170940321#0" busStop="1674.TA.92-1-N-j24-1.90.R.1" /> 
        <ride busStop="1674.TA.92-1-N-j24-1.90.R.2" lines="1003.TA.92-9-H-j24-1.10.H" intended="630.TA.92-9-H-j24-1.10.H.0" depart="29390.00" /> 
        <ride busStop="1674.TA.92-1-N-j24-1.90.R.6" lines="2746.TA.92-1-N-j24-1.100.R" intended="2858.TA.92-1-N-j24-1.100.R.0" depart="29510.00" /> 
        <walk edges="-819942944#4 819945211 -1467922383 819945210#0 41595601#0 -41595601#2 41595601#3 41595601#4 -41595601#5 -1005052428#1 -1005052428#2 819942942#0 152390930#1 -1005048061#2 1005048061#1 -1005048061#0 1005048062#1 -578147406 -268146940#2 39830434#0 39830434#1 -39830434#2 -391952926#3 391952926#2 391952926#1 -1115015077#2 1115015077#1 1115015078#3 -1115015078#2 -1115015078#1 1115015078#0 -268152262#6 -268152262#5 268152262#4 268152262#3 -268152262#2 268152262#1 -1115015079#3 1115015079#2 -210208895" arrivalPos="12.16" />
    </person>
    <person id="2936" depart="29214.54" departPos="random">
        <walk edges="-170940321#1 170940321#1 -170940321#0" busStop="1674.TA.92-1-N-j24-1.90.R.1" /> 
        <ride busStop="1674.TA.92-1-N-j24-1.90.R.2" lines="1003.TA.92-9-H-j24-1.10.H" intended="630.TA.92-9-H-j24-1.10.H.0" depart="29390.00" /> 
        <ride busStop="1674.TA.92-1-N-j24-1.90.R.6" lines="2746.TA.92-1-N-j24-1.100.R" intended="2858.TA.92-1-N-j24-1.100.R.0" depart="29510.00" /> 
        <walk edges="-819942944#4 819945211 -1467922383 819945210#0 41595601#0 -41595601#2 41595601#3 41595601#4 -41595601#5 -1005052428#1 -1005052428#2 819942942#0 152390930#1 -1005048061#2 1005048061#1 -1005048061#0 1005048062#1 -578147406 -268146940#2 39830434#0 39830434#1 -39830434#2 -391952926#3 391952926#2 391952926#1 -1115015077#2 1115015077#1 1115015078#3 -1115015078#2 -1115015078#1 1115015078#0 -268152262#6 -268152262#5 268152262#4 268152262#3 -268152262#2 268152262#1 -1115015079#3 1115015079#2 -210208895" arrivalPos="40.89" />
    </person>
    <person id="71" depart="29217.29" departPos="random">
        <walk edges="-391653986#0 391653986#0 -338400632#3 -1036672004#1 1036672004#0 -391653985#0 -391653985#1 -1036672006#1 -1036672006#0 890169723#2 -890169723#1 -890169723#0 -890169725#1 -890169725#2 -890169725#3 890169725#5 776871491#0 776871491#1 -776871491#2 1083273108#0 -1083273108#1 1083273108#2 -1083273108#3 1069366694#1 1069366694#2 -1069366694#3 1069366694#4 1443580513#0 -1443580513#1 1443580513#2" busStop="36.TA.96-290-0-j24-1.27.R.6" /> 
        <ride busStop="36.TA.96-290-0-j24-1.27.R.12" lines="48.TA.96-290-0-j24-1.17.R" intended="48.TA.96-290-0-j24-1.17.R.0" depart="31610.00" /> 
        <walk edges="977972909 -315159485#0 -315159485#1 315159485#2 315159485#3 315159485#4 -315159485#5 -315159485#6 1068729371#0 -1068729371#1 -1068729371#2 170952349#0 -170952349#1 -977972910" busStop="1193.TA.92-10-J-j24-1.22.R.0" /> 
        <ride busStop="1193.TA.92-10-J-j24-1.22.R.5" lines="48.TA.96-290-0-j24-1.17.R" intended="48.TA.96-290-0-j24-1.17.R.0" depart="33050.00" /> 
        <walk edges="209755663#3 -209755663#4 -256959704#0 256959704#2" busStop="1905.TA.92-2-L-j24-1.33.R.0" /> 
        <ride busStop="2337.TA.92-6-I-j24-1.16.H.35" lines="4700.TA.92-6-I-j24-1.34.R" intended="4919.TA.92-6-I-j24-1.34.R.0" depart="34190.00" /> 
        <walk edges="-894849663 894849663" arrivalPos="7.31" />
    </person>
    <person id="1486" depart="29220.35" departPos="random">
        <walk edges="819942945#0 1068735342#1 1068735342#0 -47578286 120840712#0 903531446 120840710 519913263#0 519913263#1" busStop="1323.TA.92-1-N-j24-1.88.H.14" /> 
        <ride busStop="14.TA.96-290-0-j24-1.25.H.8" lines="20.TA.96-290-0-j24-1.10.H" intended="26.TA.96-290-0-j24-1.10.H.0" depart="29690.00" /> 
        <walk edges="-1443580513#2 -1443580513#3 1443580513#4" arrivalPos="8.61" />
    </person>
    <person id="2120" depart="29222.97" departPos="random">
        <walk edges="-191253662#7 -1068735332#3 30957906 -1493002173 -30952515#1 -30952515#0" busStop="2463.TA.92-1-N-j24-1.93.R.1" /> 
        <ride busStop="1674.TA.92-1-N-j24-1.90.R.6" lines="2917.TA.92-6-I-j24-1.22.R" intended="3365.TA.92-6-I-j24-1.22.R.0" depart="29690.00" /> 
        <ride busStop="1323.TA.92-1-N-j24-1.88.H.14" lines="1003.TA.92-9-H-j24-1.10.H" intended="646.TA.92-9-H-j24-1.10.H.0" depart="30650.00" /> 
        <walk edges="519913263#1 519913263#0 897592613 904728442 916468197 916468198#1 916468198#2 89724876#5 89724876#6 89724876#1" arrivalPos="12.64" />
    </person>
    <person id="2082" depart="29248.80" departPos="random">
        <walk edges="-268146940#5 268146940#5 -268146940#4 268146940#3 268146940#2 -578147406 1005048062#1 -1005048061#0 1005048061#1 -1005048061#2 -152522410#1 819942940#1 819942940#0 -1005052428#2 1005052428#1 -41595601#5 41595601#4 41595601#3 -41595601#2 41595601#0 819945210#0 819945209 -152517443#2 -152517443#1" busStop="1323.TA.92-1-N-j24-1.88.H.17" /> 
        <ride busStop="1323.TA.92-1-N-j24-1.88.H.23" lines="1793.TA.92-6-I-j24-1.11.H" intended="1851.TA.92-6-I-j24-1.11.H.0" depart="29930.00" /> 
        <walk edges="-170952324#1 170952324#0 19724261 769993301#0 769993301#1 769993301#2 268146971#0 -268146971#1 -268146971#2 -268146971#3 268146971#4" arrivalPos="11.88" />
    </person>
    <person id="1254" depart="29253.10" departPos="random">
        <walk edges="-196519206#1 196519206#1 -196519206#0 -1428300392#1 1428300392#0 69347929 191253662#0 191253662#1 -191253662#2 191253662#3 -191253662#4 191253662#5 191253662#6 -191253662#7 -1068735332#3 30957906 -1493002173 -30952515#1 -30952515#0" busStop="2463.TA.92-1-N-j24-1.93.R.1" /> 
        <ride busStop="1323.TA.92-1-N-j24-1.88.H.25" lines="2917.TA.92-6-I-j24-1.22.R" intended="3041.TA.92-6-I-j24-1.22.R.0" depart="31490.00" /> 
        <ride busStop="1323.TA.92-1-N-j24-1.88.H.26" lines="1406.TA.92-1-N-j24-1.89.H" intended="1571.TA.92-1-N-j24-1.89.H.0" depart="31610.00" /> 