<routes xmlns:xsi="http://www.w3.org/2001/XMLSchema-instance" xsi:noNamespaceSchemaLocation="http://sumo.dlr.de/xsd/routes_file.xsd">
    <person id="85" depart="28889.60" departPos="random">
        <walk edges="918447407 235361058#1 235361058#0 26167908#4 26167908#3 26167908#1 26167898#1 26167898#0 -30957907" busStop="1008.TA.92-1-N-j24-1.88.H.25" /> 
        <ride busStop="1679.TA.92-1-N-j24-1.90.R.6" intended="3068.TA.92-6-I-j24-1.22.R.0" depart="29750.00" /> 
        <ride busStop="1008.TA.92-1-N-j24-1.88.H.14" intended="205.TA.92-9-H-j24-1.10.H.0" depart="30650.00" /> 
        <walk edges="519913263#1 897620166 894622277 519913257#1" arrivalPos="25.50" />
    </person>
    <person id="32" depart="28958.69" departPos="random">
        <walk edges="185833040#1 185833040#0 -18887954#2 -18887954#1 18887954#0 -31061888#1 -187198083#7 187198083#6 187198083#5 -187198083#3 -187198083#2 187198083#1 187198083#0 -117614806 1136237781 76091870#2 76091870#1 76091870#0 1136237774 76091869#0 -209788013" busStop="459.TA.92-10-J-j24-1.71.H.27" /> 
        <ride busStop="459.TA.92-10-J-j24-1.71.H.29" intended="2158.TA.92-6-I-j24-1.16.H.0" depart="29690.00" /> 
        <ride busStop="16.TA.96-290-0-j24-1.26.H.9" intended="29.TA.96-290-0-j24-1.10.H.0" depart="30950.00" /> 
        <walk edges="-890169725#1 -890169725#0 890169724#2" arrivalPos="19.95" />
    </person>
    <person id="81" depart="29197.95" departPos="random">
        <walk edges="-30957910#1 -30957910#2 152385705#2 152385705#1 -152385705#0 25303487#3" busStop="1679.TA.92-1-N-j24-1.90.R.4" /> 
        <ride busStop="1008.TA.92-1-N-j24-1.88.H.14" intended="2689.TA.92-1-N-j24-1.100.R.0" depart="29630.00" /> 
        <walk edges="519913263#1 519913263#0 897592613 904728442 916468197 72562096#0 89724876#3 89724876#2 916015459#0" arrivalPos="0.24" />
    </person>
    <person id="64" depart="29217.29" departPos="random">
        <walk edges="-268152262#5 -268152262#6 1115015078#0 -1115015078#1 -1115015078#2 1115015078#3 1115015077#1 -1115015077#2 391952926#1 391952926#2 -391952926#3 -39830434#2 39830434#1 39830434#0 268146940#2 -578147406 1005048062#1 -1005048061#0 1005048061#1 -1005048061#2 -152522410#1 819942940#1 819942940#0 -1005052428#2 1005052428#1 -41595601#5 41595601#4 41595601#3 -41595601#2 41595601#0 819945210#0 -1467922383 819945211 -819942944#4 819942944#3" busStop="1008.TA.92-1-N-j24-1.88.H.15" /> 
        <ride busStop="1008.TA.92-1-N-j24-1.88.H.25" intended="667.TA.92-6-I-j24-1.3.H.0" depart="30530.00" /> 
        <ride busStop="1008.TA.92-1-N-j24-1.88.H.26" intended="1153.TA.92-1-N-j24-1.89.H.0" depart="31610.00" /> 
        <ride busStop="459.TA.92-10-J-j24-1.71.H.29" intended="980.TA.92-2-L-j24-1.15.H.0" depart="31970.00" /> 
        <walk edges="-894905824 -256959704#0 -209755663#4 209755663#3 209755663#2 -209755663#0 1317098557 59637812#0 59637812#1 -59637812#2 -59637812#3 59637812#4 -59637812#5 59637812#7 59637812#8" arrivalPos="108.49" />
    </person>
    <person id="26" depart="29784.39" departPos="random">
        <walk edges="59637812#3 -59637812#2 59637812#1 59637812#0 -58413640#0 -209755663#0 209755663#2 209755663#3" busStop="1136.TA.92-10-J-j24-1.22.R.5" /> 
        <ride busStop="1136.TA.92-10-J-j24-1.22.R.7" intended="61.TA.96-290-0-j24-1.30.R.0" depart="30230.00" /> 
        <walk edges="76091869#1 76091869#0 1136237774 -76091870#0 76091870#1 76091870#2 1136237781 -117614806 116077721#0 116077721#1 116077721#2 -116077721#3 186141915#0 -186141915#1 1430507283 -645951511#0 1085798451 1068941219#1" arrivalPos="36.60" />
    </person>
    <person id="48" depart="30772.95" departPos="random">
        <walk edges="-116847803 31061889#0 31061888#1 116715858 147218475#2 -147218475#0 1086005527#0 1086005528 14014136#0 1136237770 1086005533" busStop="2467.TA.92-1-N-j24-1.95.R.3" /> 
        <ride busStop="1136.TA.92-10-J-j24-1.22.R.22" intended="4666.TA.92-6-I-j24-1.34.R.0" depart="31790.00" /> 
        <walk edges="894576901#0 152337236#1 -41595601#5 41595601#4 41595601#3 -41595601#2 41595601#0 819945210#0 -1467922383 819945211 -819942944#4" busStop="1679.TA.92-1-N-j24-1.90.R.6" /> 
        <ride busStop="1008.TA.92-1-N-j24-1.88.H.14" intended="3050.TA.92-1-N-j24-1.101.R.0" depart="33530.00" /> 
        <walk edges="519913263#1 519913263#0 -120840710 519913265#0 519913265#1" arrivalPos="14.95" />
    </person>
    <person id="68" depart="30891.43" departPos="random">
        <walk edges="30952515#1 -30952515#0" busStop="2386.TA.92-1-N-j24-1.93.R.1" /> 
        <ride busStop="1008.TA.92-1-N-j24-1.88.H.25" intended="3062.TA.92-6-I-j24-1.22.R.0" depart="31490.00" /> 
        <ride busStop="1008.TA.92-1-N-j24-1.88.H.26" intended="1153.TA.92-1-N-j24-1.89.H.0" depart="31610.00" /> 
        <walk edges="1086005529 14014136#0 14014136#1 14014136#2 1136237773" arrivalPos="0.15" />
    </person>
    <person id="62" depart="30915.84" departPos="random">
        <walk edges="-37804543#2 37804543#3 -37804543#4 -1161282679#1 -1161282679#0 268146940#6 268146940#5 -268146940#4 268146940#3 268146940#2 -268146940#1 -268146940#0 -268146944#1 268146944#0 25412020#0 25412019" busStop="262.TA.92-10-J-j24-1.4.H.10" /> 
        <ride busStop="1008.TA.92-1-N-j24-1.88.H.26" intended="2215.TA.92-6-I-j24-1.16.H.0" depart="31730.00" /> 
        <walk edges="1086005529 14014136#0 14014136#1 14014136#2 1086005535 -209788013" busStop="459.TA.92-10-J-j24-1.71.H.27" /> 
        <ride busStop="459.TA.92-10-J-j24-1.71.H.28" intended="2215.TA.92-6-I-j24-1.16.H.0" depart="33290.00" /> 
        <ride busStop="459.TA.92-10-J-j24-1.71.H.29" intended="3.TA.96-290-0-j24-1.2.H.0" depart="33650.00" /> 
        <walk edges="-894905824 -256959704#0 -209755663#4 209755663#3 209755663#2 -209755663#0 1317098557 59637812#0 59637812#1 -59637812#2 -59637812#3 59637812#4 -59637812#5 59637812#7 -59637812#8 59637812#9 -59637812#10 -1086010084 -1086010083 -175833044#1 175833044#0 175833041 241932762#4 241932762#3 -241932762#2 241932762#1 241932762#0 -426408082#1 426408082#0 -426408076#5 426408076#4 426408076#3 -426408076#2 -426408076#1 -426408076#0" arrivalPos="1.37" />
    </person>
    <person id="50" depart="30960.73" departPos="random">
        <walk edges="519913257#1" busStop="1.TA.92-4-Q-j24-1.7.R.13" /> 
        <ride busStop="1008.TA.92-1-N-j24-1.88.H.25" intended="198.TA.96-260-1-j24-1.12.R.0" depart="31070.00" /> 
        <ride busStop="1008.TA.92-1-N-j24-1.88.H.26" intended="1153.TA.92-1-N-j24-1.89.H.0" depart="31610.00" /> 
        <ride busStop="459.TA.92-10-J-j24-1.71.H.34" intended="980.TA.92-2-L-j24-1.15.H.0" depart="31970.00" /> 
        <walk edges="894576903 -170952349#1 170952349#0 1068729371#2 -1068729371#1 1068729371#0 315159485#6 -315159485#5 -315159485#4 315159485#3 -315159485#2 -315159485#1 315159485#0 -977972909 -501346489#2" busStop="16.TA.96-290-0-j24-1.26.H.1" /> 
        <ride busStop="16.TA.96-290-0-j24-1.26.H.9" intended="21.TA.96-290-0-j24-1.10.H.0" depart="35270.00" /> 
        <walk edges="-890169725#1 -890169725#2 -890169725#3 -890169725#5" arrivalPos="4.83" />
    </person>
    <person id="76" depart="32681.32" departPos="random">
        <walk edges="25366042#2 -25366042#1 25366042#0 268146940#5 -268146940#4 268146940#3 268146940#2 -578147406 1005048062#1 -1005048061#0 1005048061#1 -1005048061#2 -152522410#1 819942940#1 819942940#0 -1005052428#2 1005052428#1 -41595601#5 41595601#4 41595601#3 -41595601#2 41595601#0 819945210#0 819945209 -152517443#2 -152517443#1" busStop="1008.TA.92-1-N-j24-1.88.H.17" /> 
        <ride busStop="1008.TA.92-1-N-j24-1.88.H.23" intended="1477.TA.92-6-I-j24-1.11.H.0" depart="33530.00" /> 
        <ride busStop="1008.TA.92-1-N-j24-1.88.H.25" intended="562.TA.92-6-I-j24-1.3.H.0" depart="34550.00" /> 
        <ride busStop="1008.TA.92-1-N-j24-1.88.H.28" intended="1564.TA.92-1-N-j24-1.89.H.0" depart="35210.00" /> 
        <walk edges="30957916#1" arrivalPos="21.35" />
    </person>
    <person id="35" depart="33784.81" departPos="random">
        <walk edges="116511577#0 -187198083#3 -187198083#2 187198083#1 187198083#0 -117614806 1136237781 76091870#2 76091870#1 76091870#0 1136237774 76091869#0 -209788013" busStop="459.TA.92-10-J-j24-1.71.H.27" /> 
        <ride busStop="459.TA.92-10-J-j24-1.71.H.29" intended="948.TA.92-2-L-j24-1.15.H.0" depart="35630.00" /> 
        <walk edges="-894905824 -256959704#0 -209755663#4 209755663#3 209755663#2 -209755663#0 1317098557 -58413641 -150335026#4 150335026#3 150335026#2" arrivalPos="2.60" />
    </person>
    <person id="34" depart="33827.64" departPos="random">
        <walk edges="116507539#1 -116507539#0 1136237777 76091870#1 76091870#0 1136237774 76091869#0 -209788013" busStop="459.TA.92-10-J-j24-1.71.H.27" /> 
        <ride busStop="14.TA.96-290-0-j24-1.25.H.7" intended="21.TA.96-290-0-j24-1.10.H.0" depart="34010.00" /> 
        <walk edges="-633986854#1 -68115526#1 68115526#0 -68115532" arrivalPos="61.26" />
    </person>
    <person id="49" depart="33886.20" departPos="random">
        <walk edges="-187633169#3 187633169#3 -187633169#2 -187633169#1 -187633169#0 -1050853680 -25418588#1" busStop="2467.TA.92-1-N-j24-1.95.R.2" /> 
        <ride busStop="2467.TA.92-1-N-j24-1.95.R.3" intended="2467.TA.92-1-N-j24-1.95.R.0" depart="34250.00" /> 
        <ride busStop="1136.TA.92-10-J-j24-1.22.R.22" intended="1379.TA.92-2-L-j24-1.27.R.0" depart="34430.00" /> 
        <walk edges="894576901#0" arrivalPos="10.98" />
    </person>
    <person id="82" depart="34261.17" departPos="random">
        <walk edges="30050433#0 -96461184#1 96461184#0 -30957915" busStop="1679.TA.92-1-N-j24-1.90.R.3" /> 
        <ride busStop="1679.TA.92-1-N-j24-1.90.R.5" intended="2467.TA.92-1-N-j24-1.95.R.0" depart="34970.00" /> 
        <walk edges="152517715#3 152517715#1" arrivalPos="3.47" />
    </person>
    <person id="30" depart="34296.51" departPos="random">
        <walk edges="-198123925#1 198123925#1 198123925#0 426408073 -175833043 -175833047#2 -175833047#1 175833047#0 175833041 175833044#0 -175833044#1 -1086010083 -1086010084 -59637812#10 59637812#9 -59637812#8 59637812#7 -59637812#5 59637812#4 -59637812#3 -59637812#2 59637812#1 59637812#0 -58413640#0 -209755663#0 209755663#2 209755663#3" busStop="1136.TA.92-10-J-j24-1.22.R.5" /> 
        <ride busStop="2467.TA.92-1-N-j24-1.95.R.3" intended="55.TA.96-290-0-j24-1.29.R.0" depart="36950.00" /> 
        <ride busStop="1008.TA.92-1-N-j24-1.88.H.25" intended="41.TA.96-290-0-j24-1.35.R.0" depart="37550.00" /> 
        <walk edges="-30957907 26167898#0 26167898#1 -26167908#1 26167908#3 26167908#4 235361058#0 235361058#1" arrivalPos="70.38" />
    </person>
    <person id="11" depart="34366.98" departPos="random">
        <walk edges="-256959704#0 -894905824" busStop="459.TA.92-10-J-j24-1.71.H.29" /> 
        <ride busStop="16.TA.96-290-0-j24-1.26.H.16" intended="21.TA.96-290-0-j24-1.10.H.0" depart="34550.00" /> 
        <walk edges="1426892794#3 391649038#2" arrivalPos="7.34" />
    </person>
    <person id="88" depart="35263.26" departPos="random">
        <walk edges="769993301#5 19724261 170952324#0 170952324#1" busStop="1679.TA.92-1-N-j24-1.90.R.0" /> 
        <ride busStop="1679.TA.92-1-N-j24-1.90.R.6" intended="2884.TA.92-6-I-j24-1.22.R.0" depart="35330.00" /> 
        <ride busStop="1008.TA.92-1-N-j24-1.88.H.14" intended="128.TA.92-9-H-j24-1.10.H.0" depart="36050.00" /> 
        <walk edges="519913263#1 519913259 519913265#1" arrivalPos="22.60" />
    </person>
    <person id="0" depart="35482.39" departPos="random">
        <walk edges="-1083277954 -429497062#0 -429497062#1 1083261780 -1083261781#0 -1083261781#1 1083261779 -370855281#0 370855281#1" busStop="1.TA.96-290-3-j24-1.1.H.1" /> 
        <ride busStop="1.TA.96-290-3-j24-1.1.H.4" intended="3.TA.96-290-3-j24-1.1.H.0" depart="36890.00" /> 
        <walk edges="120829159" busStop="14.TA.96-290-0-j24-1.25.H.11" /> 
        <ride busStop="36.TA.96-290-0-j24-1.27.R.9" intended="58.TA.96-290-0-j24-1.29.R.0" depart="37910.00" /> 
        <walk edges="430248865#10 430248865#9 -430248865#8 430248865#7 1054486961#0 -1054486961#1 1054486961#2" arrivalPos="169.01" />
    </person>
    <person id="74" depart="35846.06" departPos="random">
        <walk edges="88717666#4 -88717666#3 88717666#2 88717666#1 -96461180#4 96461180#3 -96461180#1 96461180#0 -30050433#3 -30050433#2 -30050433#1 30050433#0 -51814855 170940321#0 -170940321#1 170952324#5 -170952324#3 170952324#2 -170952324#1" busStop="1008.TA.92-1-N-j24-1.88.H.23" /> 
        <ride busStop="1008.TA.92-1-N-j24-1.88.H.28" intended="733.TA.92-1-N-j24-1.81.H.0" depart="36950.00" /> 
        <walk edges="30957916#1" arrivalPos="24.93" />
    </person>
    <person id="63" depart="35863.86" departPos="random">
        <walk edges="-268146971#2 -268146971#1 268146971#0 769993301#2 769993301#1 769993301#0 19724261 170952324#0 -170952324#1" busStop="1008.TA.92-1-N-j24-1.88.H.23" /> 
        <ride busStop="2386.TA.92-1-N-j24-1.93.R.0" intended="463.TA.92-6-I-j24-1.3.H.0" depart="36350.00" /> 
        <walk edges="1068735330#7 -1068735330#5 1068735330#4 -1068735330#2 -1068735330#1" busStop="459.TA.92-10-J-j24-1.71.H.21" /> 
        <ride busStop="1008.TA.92-1-N-j24-1.88.H.26" intended="155.TA.92-2-L-j24-1.3.H.0" depart="36890.00" /> 
        <ride busStop="459.TA.92-10-J-j24-1.71.H.29" intended="1.TA.96-291-0-j24-1.3.H.0" depart="37430.00" /> 
        <walk edges="-894905824 -256959704#0 -209755663#4 209755663#3 209755663#2 -209755663#0 1317098557 59637812#0 59637812#1 -59637812#2 -59637812#3 59637812#4 -59637812#5 59637812#7 -59637812#8 59637812#9 -59637812#10 -1086010084 -1086010083 -175833044#1 175833044#0 175833041 241932762#4 241932762#3 -241932762#2 241932762#1 241932762#0 -426408082#1 426408082#0 -426408076#5 426408076#4 426408076#3 -426408076#2 -426408076#1 278156729#5 278156729#4 278156729#3" arrivalPos="31.55" />
    </person>
    <person id="243" depart="36202.95" departPos="random">
        <walk edges="-72562019#2 72562019#2 -72562019#1 72562019#0 72562018 1068735331 30957906 1068735330#7 -1068735330#5 1068735330#4 -1068735330#2 -1068735330#1" busStop="459.TA.92-10-J-j24-1.71.H.21" /> 
        <ride busStop="1008.TA.92-1-N-j24-1.88.H.26" intended="155.TA.92-2-L-j24-1.3.H.0" depart="36890.00" /> 
        <walk edges="1086005529 1136237770 1086005533" busStop="2467.TA.92-1-N-j24-1.95.R.3" /> 
        <ride busStop="1008.TA.92-1-N-j24-1.88.H.14" intended="55.TA.96-290-0-j24-1.29.R.0" depart="37430.00" /> 
        <walk edges="519913263#1 519913263#0 897592613 519913261#0 519913261#1" arrivalPos="8.55" />
    </person>
    <person id="33" depart="36262.18" departPos="random">
        <walk edges="-182550686#0 182550686#0 182098926 209788024#0 -209788024#1 182095936#0 182095936#1 1136239035#0 1136239035#1 -209788015 1219863759 1219863760#1 -72561993#1 72561993#0 1086005529" busStop="1008.TA.92-1-N-j24-1.88.H.26" /> 
        <ride busStop="16.TA.96-290-0-j24-1.26.H.16" intended="28.TA.96-290-0-j24-1.10.H.0" depart="37610.00" /> 
        <walk edges="1426892794#3 71759543#0 -71759543#1 71759543#2 -71759543#3 522706570#0 -522706566#1 522706566#0 -522706560#1 522703215#2" arrivalPos="0.15" />
    </person>
    <person id="166" depart="36326.27" departPos="random">
        <walk edges="1116543561#3 -1116543561#2 -1116543561#1 1116543561#0 152385705#2 152385705#1 -152385705#0 25303487#3" busStop="1679.TA.92-1-N-j24-1.90.R.4" /> 
        <ride busStop="1008.TA.92-1-N-j24-1.88.H.14" intended="3092.TA.92-1-N-j24-1.101.R.0" depart="36830.00" /> 
        <walk edges="519913263#1 897620166 894622277 519913257#1" arrivalPos="27.38" />
    </person>
    <person id="116" depart="36424.84" departPos="random">
        <walk edges="187633173#1 -187633173#0 187633169#4 187633169#3 -187633169#2 -187633169#1 -187633169#0 -1050853680 -25418588#1 19738790#1 19738790#0 -1050853679 -19738795 1086005531 1086005530 1136237769 1086005533" busStop="2467.TA.92-1-N-j24-1.95.R.3" /> 
        <ride busStop="1008.TA.92-1-N-j24-1.88.H.14" intended="55.TA.96-290-0-j24-1.29.R.0" depart="37430.00" /> 
        <walk edges="519913263#1" arrivalPos="0.85" />
    </person>
    <person id="194" depart="36429.67" departPos="random">
        <walk edges="-819945220#2 819945220#1 819945220#0 120840708 -30957915" busStop="1679.TA.92-1-N-j24-1.90.R.3" /> 
        <ride busStop="1008.TA.92-1-N-j24-1.88.H.14" intended="3092.TA.92-1-N-j24-1.101.R.0" depart="36770.00" /> 
        <walk edges="519913263#1 519913263#0 897592613 519913261#0 519913261#1" arrivalPos="19.42" />
    </person>
    <person id="246" depart="36446.89" departPos="random">
        <walk edges="152516783#1 152516783#2 152516783#3 152516783#4 25412020#0 25412019 152337236#1 -41595601#5 41595601#4 41595601#3 -41595601#2 41595601#0 819945210#0 -1467922383 819945211 -819942944#4" busStop="1679.TA.92-1-N-j24-1.90.R.6" /> 
        <ride busStop="1008.TA.92-1-N-j24-1.88.H.14" intended="3092.TA.92-1-N-j24-1.101.R.0" depart="37130.00" /> 
        <walk edges="519913263#1 519913263#0 897592613 904728442 519913257#0 519913257#1" arrivalPos="3.70" />
    </person>
    <person id="176" depart="36462.52" departPos="random">
        <walk edges="1466236176 96461180#6 -96461180#5" busStop="1128.TA.92-9-H-j24-1.12.R.0" /> 
        <ride busStop="1008.TA.92-1-N-j24-1.88.H.22" intended="1926.TA.92-9-H-j24-1.12.R.0" depart="36890.00" /> 
        <walk edges="170940321#0 -170940321#1 170952322#0 170952322#1" busStop="2.TA.92-4-Q-j24-1.8.R.13" /> 
        <ride busStop="154.TA.92-1-N-j24-1.77.H.0" intended="1926.TA.92-9-H-j24-1.12.R.0" depart="37190.00" /> 
        <walk edges="519913261#1 519913261#0 -897592613 519913263#0 519913263#1" arrivalPos="3.55" />
    </person>
    <person id="191" depart="36464.16" departPos="random">
        <walk edges="-317053074 -382202903#1 382202903#2 -382202903#3 1441721435 -1132581922 -30957915" busStop="1679.TA.92-1-N-j24-1.90.R.3" /> 
        <ride busStop="1008.TA.92-1-N-j24-1.88.H.14" intended="3092.TA.92-1-N-j24-1.101.R.0" depart="36770.00" /> 
        <walk edges="519913263#1 519913263#0 897592613 904728442 519913257#0 519913257#1" arrivalPos="11.77" />
    </person>
    <person id="229" depart="36541.29" departPos="random">
        <walk edges="210208895 -210208895 1115015079#2 -1115015079#3 268152262#1 -268152262#2 268152262#3 268152262#4 -268152262#5 -268152262#6 1115015078#0 -1115015078#1 -1115015078#2 1115015078#3 1115015077#1 -1115015077#2 391952926#1 391952926#2 -391952926#3 -39830434#2 39830434#1 39830434#0 268146940#2 -578147406 1005048062#1 -1005048061#0 1005048061#1 -1005048061#2 -152522410#1 819942940#1 819942940#0 -1005052428#2 1005052428#1 -41595601#5 41595601#4 41595601#3 -41595601#2 41595601#0 819945210#0 -1467922383 819945211 -819942944#4" busStop="1679.TA.92-1-N-j24-1.90.R.6" /> 
        <ride busStop="1008.TA.92-1-N-j24-1.88.H.14" intended="2511.TA.92-1-N-j24-1.95.R.0" depart="38930.00" /> 
        <walk edges="519913263#1 897620166 894622277 519913257#1" arrivalPos="27.61" />
    </person>
    <person id="105" depart="36572.23" departPos="random">
        <walk edges="256959704#0 -209755663#4 209755663#3" busStop="1136.TA.92-10-J-j24-1.22.R.5" /> 
        <ride busStop="1008.TA.92-1-N-j24-1.88.H.14" intended="55.TA.96-290-0-j24-1.29.R.0" depart="36950.00" /> 
        <walk edges="519913263#1 519913263#0 897592613 519913261#0 519913261#1" arrivalPos="7.49" />
    </person>
    <person id="113" depart="36634.78" departPos="random">
        <walk edges="-116715856 147218475#2 -147218475#0 1086005527#0 1086005528 14014136#0 1136237770 1086005533" busStop="2467.TA.92-1-N-j24-1.95.R.3" /> 
        <ride busStop="1008.TA.92-1-N-j24-1.88.H.14" intended="55.TA.96-290-0-j24-1.29.R.0" depart="37430.00" /> 
        <walk edges="519913263#1 519913263#0 897592613 904728442 519913257#0 519913257#1" arrivalPos="4.81" />
    </person>
    <person id="158" depart="36676.92" departPos="random">
        <walk edges="175791807#1 -175791807#1 1158102646 175791806#0 -175791806#1 -317053074 -30957914#2 -30957914#1 30957914#0 170952322#1" busStop="2.TA.92-4-Q-j24-1.8.R.13" /> 
        <ride busStop="154.TA.92-1-N-j24-1.77.H.0" intended="1926.TA.92-9-H-j24-1.12.R.0" depart="37190.00" /> 
        <walk edges="519913261#1 519913261#0 -897592613 -120840710 519913265#0 519913265#1" arrivalPos="15.67" />
    </person>
    <person id="52" depart="36840.52" departPos="random">
        <walk edges="88717666#5 88717666#4 -88717666#3 88717666#2 88717666#1 -96461180#4 96461180#3 -96461180#1 96461180#0 -30050433#3 -30050433#2" busStop="1008.TA.92-1-N-j24-1.88.H.21" /> 
        <ride busStop="1008.TA.92-1-N-j24-1.88.H.23" intended="1819.TA.92-6-I-j24-1.11.H.0" depart="37370.00" /> 
        <ride busStop="1008.TA.92-1-N-j24-1.88.H.25" intended="478.TA.92-6-I-j24-1.3.H.0" depart="38150.00" /> 
        <ride busStop="1008.TA.92-1-N-j24-1.88.H.26" intended="1185.TA.92-1-N-j24-1.89.H.0" depart="38810.00" /> 
        <ride busStop="459.TA.92-10-J-j24-1.71.H.34" intended="963.TA.92-2-L-j24-1.15.H.0" depart="39170.00" /> 
        <walk edges="894576903 -170952349#1 170952349#0 1068729371#2 -1068729371#1 1068729371#0 315159485#6 -315159485#5 -315159485#4 315159485#3 -315159485#2 -315159485#1 315159485#0 -977972909 -501346489#2" busStop="16.TA.96-290-0-j24-1.26.H.1" /> 
        <ride busStop="19.TA.96-290-0-j24-1.32.H.33" intended="20.TA.96-290-0-j24-1.10.H.0" depart="42470.00" /> 
        <walk edges="365973802 -1162538599#1 -1162538599#2 1162538599#3" arrivalPos="20.02" />
    </person>
    <person id="232" depart="37008.03" departPos="random">
        <walk edges="30050433#3 -30050433#3 -819945220#2 819945220#1 819945220#0 120840708 -30957915" busStop="1679.TA.92-1-N-j24-1.90.R.3" /> 
        <ride busStop="1679.TA.92-1-N-j24-1.90.R.6" intended="2803.TA.92-6-I-j24-1.22.R.0" depart="37370.00" /> 
        <ride busStop="1008.TA.92-1-N-j24-1.88.H.14" intended="371.TA.92-9-H-j24-1.10.H.0" depart="37850.00" /> 
        <walk edges="519913263#1" arrivalPos="16.90" />
    </person>
    <person id="123" depart="37025.76" departPos="random">
        <walk edges="1161282679#5 -1161282679#4 -1161282679#3 1161282679#2 -1161282679#1 -1161282679#0 268146940#6 268146940#5 -268146940#4 268146940#3 268146940#2 -578147406 1005048062#1 -1005048061#0 1005048061#1 -1005048061#2 -152522410#1 819942940#1 819942940#0 -1005052428#2 1005052428#1 -41595601#5 41595601#4 41595601#3 -41595601#2 41595601#0 819945210#0 -1467922383 819945211 -819942944#4" busStop="1679.TA.92-1-N-j24-1.90.R.6" /> 
        <ride busStop="1008.TA.92-1-N-j24-1.88.H.14" intended="371.TA.92-9-H-j24-1.10.H.0" depart="37850.00" /> 
        <walk edges="519913263#1" arrivalPos="19.60" />
    </person>
    <person id="106" depart="37192.41" departPos="random">
        <walk edges="426408076#5 -426408076#5 426408082#0 -426408082#1 241932762#0 241932762#1 -241932762#2 241932762#3 -241932762#4 175833041 175833044#0 -175833044#1 -1086010083 -1086010084 -59637812#10 59637812#9 -59637812#8 59637812#7 -59637812#5 59637812#4 -59637812#3 -59637812#2 59637812#1 59637812#0 -58413640#0 -209755663#0 209755663#2 209755663#3 -209755663#4 -96461185 1068735318#0 -1068735318#1 -1068735318#2 -256959702#0 -256959702#1 -256959702#2 -150277078#0 150277078#1 -150277078#2 -150277078#3 150277078#4 -150277078#5 -1472605488#0 1472605488#1 1472605488#2" busStop="1136.TA.92-10-J-j24-1.22.R.6" /> 
        <ride busStop="1008.TA.92-1-N-j24-1.88.H.14" intended="58.TA.96-290-0-j24-1.29.R.0" depart="40550.00" /> 
        <walk edges="519913263#1 897620166 894622277 519913257#1" arrivalPos="26.76" />
    </person>
    <person id="200" depart="37226.79" departPos="random">
        <walk edges="152385705#2 -30957910#2 -30957910#1 30957910#0 -977370315 30957908#1 19724000#2 915198676#2 -915198676#0 -239178470#3 -239178470#2 239178470#1 239178470#0 -170952324#5 170952322#0 170952322#1" busStop="2.TA.92-4-Q-j24-1.8.R.13" /> 
        <ride busStop="1.TA.92-4-Q-j24-1.7.R.13" intended="41.TA.96-290-0-j24-1.35.R.0" depart="38030.00" /> 
        <walk edges="519913257#1 894622277 897620166 519913263#1" arrivalPos="27.20" />
    </person>
    <person id="192" depart="37261.83" departPos="random">
        <walk edges="-188727260#1 188730896#0 69347933#1 69347933#0 1068735334 154770319#4 -154770319#3 154770319#2 154770319#1 154770319#0 25303487#5 25303487#6 -152517715#0 -152517715#1 152517715#3" busStop="1679.TA.92-1-N-j24-1.90.R.5" /> 
        <ride busStop="1008.TA.92-1-N-j24-1.88.H.14" intended="2511.TA.92-1-N-j24-1.95.R.0" depart="38690.00" /> 
        <walk edges="519913263#1 519913263#0 -120840710 519913265#0 519913265#1" arrivalPos="8.44" />
    </person>
    <person id="230" depart="37298.74" departPos="random">
        <walk edges="204540721#0 -268146940#4 268146940#3 268146940#2 -578147406 1005048062#1 -1005048061#0 1005048061#1 -1005048061#2 -152522410#1 819942940#1 819942940#0 -1005052428#2 1005052428#1 -41595601#5 41595601#4 41595601#3 -41595601#2 41595601#0 819945210#0 -1467922383 819945211 -819942944#4" busStop="1679.TA.92-1-N-j24-1.90.R.6" /> 
        <ride busStop="1008.TA.92-1-N-j24-1.88.H.14" intended="371.TA.92-9-H-j24-1.10.H.0" depart="37850.00" /> 
        <walk edges="519913263#1 519913263#0 897592613 519913261#0 519913261#1" arrivalPos="13.96" />
    </person>
    <person id="112" depart="37464.88" departPos="random">
        <walk edges="-116077719#0 116077719#1 -116847803 31061889#0 31061888#1 116715858 147218475#2 -147218475#0 1086005527#0 1086005528 14014136#0 1136237770 1086005533" busStop="2467.TA.92-1-N-j24-1.95.R.3" /> 
        <ride busStop="1679.TA.92-1-N-j24-1.90.R.1" intended="2511.TA.92-1-N-j24-1.95.R.0" depart="37970.00" /> 
        <ride busStop="1679.TA.92-1-N-j24-1.90.R.2" intended="371.TA.92-9-H-j24-1.10.H.0" depart="38390.00" /> 
        <ride busStop="1008.TA.92-1-N-j24-1.88.H.14" intended="2511.TA.92-1-N-j24-1.95.R.0" depart="38510.00" /> 
        <walk edges="519913263#1" arrivalPos="16.44" />
    </person>
    <person id="55" depart="37574.78" departPos="random">
        <walk edges="-152385705#2 -30957910#2 -30957910#1 30957910#0 -977370315 30957908#1 19724000#2 915198676#2 -915198676#0 915198664 915198670 915198669 769993301#0 19724261 170952324#0 -170952324#1" busStop="1008.TA.92-1-N-j24-1.88.H.23" /> 
        <ride busStop="1008.TA.92-1-N-j24-1.88.H.26" intended="1185.TA.92-1-N-j24-1.89.H.0" depart="38750.00" /> 
        <ride busStop="459.TA.92-10-J-j24-1.71.H.34" intended="963.TA.92-2-L-j24-1.15.H.0" depart="39170.00" /> 
        <walk edges="894576903 -170952349#1 170952349#0 1068729371#2 -1068729371#1 1068729371#0 315159485#6 -315159485#5 -315159485#4 315159485#3 -315159485#2 -315159485#1 315159485#0 -977972909 -501346489#2" busStop="16.TA.96-290-0-j24-1.26.H.1" /> 
        <ride busStop="16.TA.96-290-0-j24-1.26.H.9" intended="20.TA.96-290-0-j24-1.10.H.0" depart="42470.00" /> 
        <walk edges="-890169725#1 -890169723#0 -890169723#1 890169723#2 -1036672006#0 -1036672006#1 391653985#1 1036672007 1036672004#0 -1036672004#1 391653990#0 -391653990#1 -391653990#2 1163547104#1 1163547104#0 -434037661#2 434037661#1 890155723#1 -890155723#0" arrivalPos="186.69" />
    </person>
    <person id="251" depart="37664.02" departPos="random">
        <walk edges="191253662#4 -191253662#4 191253662#5 191253662#6 -191253662#7 -1068735332#3 30957906 -1493002173 -30952515#1 -30952515#0" busStop="2386.TA.92-1-N-j24-1.93.R.1" /> 
        <ride busStop="1679.TA.92-1-N-j24-1.90.R.6" intended="2824.TA.92-6-I-j24-1.22.R.0" depart="38690.00" /> 
        <ride busStop="1008.TA.92-1-N-j24-1.88.H.14" intended="904.TA.92-9-H-j24-1.10.H.0" depart="39650.00" /> 
        <walk edges="519913263#1 897620166 519913261#1" arrivalPos="27.07" />
    </person>
    <person id="181" depart="37682.30" departPos="random">
        <walk edges="1068735336#2 -1068735336#1 1068735336#0 25303490 819945209 -1467922383 819945211 -819942944#4" busStop="1679.TA.92-1-N-j24-1.90.R.6" /> 
        <ride busStop="1008.TA.92-1-N-j24-1.88.H.14" intended="371.TA.92-9-H-j24-1.10.H.0" depart="37850.00" /> 
        <walk edges="519913263#1 519913263#0 897592613 904728442 519913257#0 519913257#1" arrivalPos="18.36" />
    </person>
    <person id="98" depart="37694.75" departPos="random">
        <walk edges="152517715#0 25303487#6 25303487#5 -25303487#4" busStop="1008.TA.92-1-N-j24-1.88.H.19" /> 
        <ride busStop="2386.TA.92-1-N-j24-1.93.R.0" intended="478.TA.92-6-I-j24-1.3.H.0" depart="37850.00" /> 
        <walk edges="1068735330#7 30957906 -1493002173 -72562018 72562019#0 72562019#1" arrivalPos="1.07" />
    </person>
    <person id="216" depart="37775.13" departPos="random">
        <walk edges="-188730896#5 188730896#5 -188730896#4 188730896#3 188730896#2 188730896#1 188730896#0 69347933#1 69347933#0 1068735334 -25303488#4" busStop="1286.TA.92-2-L-j24-1.22.R.4" /> 
        <ride busStop="1286.TA.92-2-L-j24-1.22.R.5" intended="1429.TA.92-2-L-j24-1.27.R.0" depart="38390.00" /> 
        <walk edges="-1115020158 -1115020159 1068735336#3 -1068735336#2 -1068735336#1 1068735336#0 25303490 819945209 -1467922383 819945211 -819942944#4 819942944#3 819942944#2 -152520535 1068735337 819942945#2 -819942945#0 1068735342#1 1068735342#0 -47578286 120840712#0 903531446 519913265#0 519913265#1" arrivalPos="0.76" />
    </person>
    <person id="66" depart="37806.18" departPos="random">
        <walk edges="-1113452970#0 -1113452970#1 -1113452970#2 -154770768#0 -1113452968 154770319#0 -25303487#4" busStop="1008.TA.92-1-N-j24-1.88.H.19" /> 
        <ride busStop="1008.TA.92-1-N-j24-1.88.H.26" intended="1185.TA.92-1-N-j24-1.89.H.0" depart="38450.00" /> 
        <ride busStop="459.TA.92-10-J-j24-1.71.H.31" intended="963.TA.92-2-L-j24-1.15.H.0" depart="39170.00" /> 
        <walk edges="-56240189#0 -188063062" arrivalPos="5.31" />
    </person>
    <person id="71" depart="37954.00" departPos="random">
        <walk edges="-30984018#5 30984018#4 -30984018#3 -30984018#2 -30984018#1 30984018#0 -1493002173 -30952515#1 -30952515#0" busStop="2386.TA.92-1-N-j24-1.93.R.1" /> 