<routes xmlns:xsi="http://www.w3.org/2001/XMLSchema-instance" xsi:noNamespaceSchemaLocation="http://sumo.dlr.de/xsd/routes_file.xsd">
    <person id="tn8106" depart="28804.89" departPos="random">
        <ride from="-268146944#1" to="-268146971#2" arrivalPos="37.39" lines="taxi" />
        <walk edges="-268146971#2 -268146971#3" arrivalPos="24.23" />
    </person>
    <person id="tn8001" depart="28805.38" departPos="random">
        <ride from="-819942940#0" to="740109140" arrivalPos="20.48" lines="taxi" />
        <walk edges="740109140" arrivalPos="48.15" />
    </person>
    <person id="tn6622" depart="28805.67" departPos="random">
        <ride from="-25303487#3" to="-268146971#2" arrivalPos="37.39" lines="taxi" />
        <walk edges="-268146971#2 -268146971#3" arrivalPos="1.24" />
    </person>
    <person id="tn5135" depart="28808.97" departPos="random">
        <ride from="189023056#1" to="740109140" arrivalPos="20.48" lines="taxi" />
        <walk edges="740109140" arrivalPos="33.21" />
    </person>
    <person id="tn6797" depart="28812.43" departPos="random">
        <ride from="-154770319#3" to="25412019" arrivalPos="14.90" lines="taxi" />
        <walk edges="25412019 25412020#0 152516783#4 152516783#3 152516783#2 152516783#1" arrivalPos="36.49" />
    </person>
    <person id="tn3609" depart="28817.71" departPos="random">
        <ride from="1115015078#2" to="-890169725#1" arrivalPos="3.04" lines="taxi" />
        <walk edges="-890169725#1 -890169725#2 -890169725#3 -1324238128 391653980#5 -391653980#3 391653980#2 -890169726" arrivalPos="4.27" />
    </person>
    <person id="tn7537" depart="28818.10" departPos="random">
        <ride from="170940321#1" to="-210208895" arrivalPos="18.71" lines="taxi" />
        <walk edges="-210208895" arrivalPos="37.45" />
    </person>
    <person id="tn4115" depart="28818.30" departPos="random">
        <ride from="-30984018#5" to="519913261#1" arrivalPos="15.00" lines="taxi" />
        <walk edges="519913261#1" arrivalPos="7.02" />
    </person>
    <person id="tn7296" depart="28819.39" departPos="random">
        <ride from="89726026#3" to="-210208895" arrivalPos="18.71" lines="taxi" />
        <walk edges="-210208895" arrivalPos="27.47" />
    </person>
    <person id="tn7101" depart="28821.49" departPos="random">
        <ride from="-170952324#0" to="-1113164891" arrivalPos="19.64" lines="taxi" />
        <walk edges="-1113164891 1041492060#1" arrivalPos="11.75" />
    </person>
    <person id="tn8409" depart="28824.99" departPos="random">
        <ride from="-188727260#0" to="25412019" arrivalPos="14.90" lines="taxi" />
        <walk edges="25412019 25412020#0 152516783#4 152516783#3 152516783#2 152516783#1" arrivalPos="0.37" />
    </person>
    <person id="tn3794" depart="28825.41" departPos="random">
        <ride from="819942940#2" to="-96461182#0" arrivalPos="7.50" lines="taxi" />
        <walk edges="-96461182#0 1472605488#1 1472605488#0 1201541125 52959697#0 52959697#1 52959697#2 -52959697#3 56085325#0 -56085325#1 56085325#2 -56085325#3" arrivalPos="25.40" />
    </person>
    <person id="tn4775" depart="28826.95" departPos="random">
        <ride from="268146971#0" to="25412019" arrivalPos="14.90" lines="taxi" />
        <walk edges="25412019 25412020#0 152516783#4 152516783#3 152516783#2 152516783#1" arrivalPos="28.83" />
    </person>
    <person id="tn8911" depart="28833.69" departPos="random">
        <ride from="30050433#3" to="-210208895" arrivalPos="18.71" lines="taxi" />
        <walk edges="-210208895" arrivalPos="22.78" />
    </person>
    <person id="tn8765" depart="28837.03" departPos="random">
        <ride from="191253662#5" to="-268146971#2" arrivalPos="37.39" lines="taxi" />
        <walk edges="-268146971#2 -268146971#3" arrivalPos="15.40" />
    </person>
    <person id="tn6773" depart="28840.53" departPos="random">
        <ride from="-1161282677" to="740109140" arrivalPos="20.48" lines="taxi" />
        <walk edges="740109140" arrivalPos="17.88" />
    </person>
    <person id="tn9015" depart="28841.07" departPos="random">
        <ride from="204540721#0" to="-268146971#2" arrivalPos="37.39" lines="taxi" />
        <walk edges="-268146971#2 -268146971#3" arrivalPos="1.64" />
    </person>
    <person id="tn5077" depart="28844.64" departPos="random">
        <ride from="-88723957#3" to="25412019" arrivalPos="14.90" lines="taxi" />
        <walk edges="25412019 25412020#0 152516783#4 152516783#3 152516783#2 152516783#1" arrivalPos="54.15" />
    </person>
    <person id="tn7964" depart="28861.35" departPos="random">
        <ride from="268152262#1" to="-268146971#2" arrivalPos="37.39" lines="taxi" />
        <walk edges="-268146971#2 -268146971#3" arrivalPos="8.75" />
    </person>
    <person id="tn4482" depart="28865.98" departPos="random">
        <ride from="-1428300392#0" to="-1113164891" arrivalPos="19.64" lines="taxi" />
        <walk edges="-1113164891 1041492060#1" arrivalPos="10.78" />
    </person>
    <person id="tn3955" depart="28866.35" departPos="random">
        <ride from="-189023056#0" to="-210208895" arrivalPos="18.71" lines="taxi" />
        <walk edges="-210208895 1115015079#2 -1115015079#3 268152262#1 268152262#2" arrivalPos="19.71" />
    </person>
    <person id="tn4678" depart="28867.15" departPos="random">
        <ride from="-191253662#0" to="-1113164891" arrivalPos="19.64" lines="taxi" />
        <walk edges="-1113164891 1041492060#1" arrivalPos="8.09" />
    </person>
    <person id="tn8560" depart="28880.71" departPos="random">
        <ride from="894576901#0" to="-268146971#2" arrivalPos="37.39" lines="taxi" />
        <walk edges="-268146971#2 -268146971#3" arrivalPos="8.35" />
    </person>
    <person id="tn2470" depart="28886.44" departPos="random">
        <ride from="-72561717#2" to="-894849663" arrivalPos="34.23" lines="taxi" />
        <walk edges="-894849663 -25418244#0" arrivalPos="8.86" />
    </person>
    <person id="tn879" depart="28895.19" departPos="random">
        <ride from="-208825827#4" to="-894849663" arrivalPos="34.23" lines="taxi" />
        <walk edges="-894849663 -25418244#0" arrivalPos="13.14" />
    </person>
    <person id="tn6657" depart="28896.01" departPos="random">
        <ride from="-196519206#1" to="-268146971#2" arrivalPos="37.39" lines="taxi" />
        <walk edges="-268146971#2 -268146971#3" arrivalPos="22.41" />
    </person>
    <person id="tn5942" depart="28898.22" departPos="random">
        <ride from="519913263#0" to="-210208895" arrivalPos="18.71" lines="taxi" />
        <walk edges="-210208895" arrivalPos="44.72" />
    </person>
    <person id="tn6056" depart="28915.31" departPos="random">
        <ride from="152336655#0" to="740109140" arrivalPos="20.48" lines="taxi" />
        <walk edges="740109140" arrivalPos="26.80" />
    </person>
    <person id="tn7908" depart="28917.43" departPos="random">
        <ride from="903531446" to="-210208895" arrivalPos="18.71" lines="taxi" />
        <walk edges="-210208895" arrivalPos="27.42" />
    </person>
    <person id="tn52" depart="28921.78" departPos="random">
        <ride from="522706570#1" to="977972909" arrivalPos="68.09" lines="taxi" />
        <walk edges="977972909 -1136143571" arrivalPos="48.17" />
    </person>
    <person id="tn7618" depart="28924.70" departPos="random">
        <ride from="-916468197" to="-210208895" arrivalPos="18.71" lines="taxi" />
        <walk edges="-210208895" arrivalPos="1.63" />
    </person>
    <person id="tn325" depart="28930.11" departPos="random">
        <ride from="-426408073" to="519913263#1" arrivalPos="15.00" lines="taxi" />
        <walk edges="519913263#1" arrivalPos="8.55" />
    </person>
    <person id="tn4666" depart="28935.65" departPos="random">
        <ride from="1068735342#0" to="-268146971#2" arrivalPos="37.39" lines="taxi" />
        <walk edges="-268146971#2 -268146971#3" arrivalPos="20.79" />
    </person>
    <person id="tn3405" depart="28935.77" departPos="random">
        <ride from="-430606783" to="1050853710" arrivalPos="26.41" lines="taxi" />
        <walk edges="1050853710 -1050853709#1" arrivalPos="0.52" />
    </person>
    <person id="tn6322" depart="28938.70" departPos="random">
        <ride from="1219872251" to="-210208895" arrivalPos="18.71" lines="taxi" />
        <walk edges="-210208895" arrivalPos="48.19" />
    </person>
    <person id="tn7259" depart="28951.05" departPos="random">
        <ride from="-1435131955#1" to="25412019" arrivalPos="14.90" lines="taxi" />
        <walk edges="25412019 25412020#0 152516783#4 152516783#3 152516783#2 152516783#1" arrivalPos="1.84" />
    </person>
    <person id="tn3689" depart="28952.52" departPos="random">
        <ride from="382202904#1" to="-502426851#0" arrivalPos="11.18" lines="taxi" />
        <walk edges="-502426851#0 391657349 171771397 -375911465#1 518701614#1 1083276368#1 -208214460 -993163402#0" arrivalPos="45.39" />
    </person>
    <person id="tn8641" depart="28968.75" departPos="random">
        <ride from="382202904#4" to="740109140" arrivalPos="20.48" lines="taxi" />
        <walk edges="740109140" arrivalPos="22.39" />
    </person>
    <person id="tn2382" depart="28987.96" departPos="random">
        <ride from="-1374473141#0" to="-894849663" arrivalPos="34.23" lines="taxi" />
        <walk edges="-894849663 -25418244#0" arrivalPos="1.81" />
    </person>
    <person id="tn7016" depart="28987.96" departPos="random">
        <ride from="30957914#2" to="25412019" arrivalPos="14.90" lines="taxi" />
        <walk edges="25412019 25412020#0 152516783#4 152516783#3 152516783#2 152516783#1" arrivalPos="7.75" />
    </person>
    <person id="tn5673" depart="28990.27" departPos="random">
        <ride from="-1041492060#1" to="740109140" arrivalPos="20.48" lines="taxi" />
        <walk edges="740109140" arrivalPos="27.80" />
    </person>
    <person id="tn4089" depart="28999.97" departPos="random">
        <ride from="-191253662#3" to="519913265#1" arrivalPos="10.00" lines="taxi" />
        <walk edges="519913265#1" arrivalPos="26.45" />
    </person>
    <person id="tn4583" depart="29006.87" departPos="random">
        <ride from="-30957915" to="25412019" arrivalPos="14.90" lines="taxi" />
        <walk edges="25412019 25412020#0 152516783#4 152516783#3 152516783#2 152516783#1" arrivalPos="16.33" />
    </person>
    <person id="tn3419" depart="29008.79" departPos="random">
        <ride from="187198083#3" to="1050853710" arrivalPos="26.41" lines="taxi" />
        <walk edges="1050853710 -1050853709#1" arrivalPos="0.72" />
    </person>
    <person id="tn209" depart="29010.76" departPos="random">
        <ride from="56240279#2" to="208825826" arrivalPos="41.20" lines="taxi" />
        <walk edges="208825826 -208825827#0 208825827#2" arrivalPos="8.52" />
    </person>
    <person id="tn6378" depart="29017.24" departPos="random">
        <ride from="188727260#1" to="-268146971#2" arrivalPos="37.39" lines="taxi" />
        <walk edges="-268146971#2 -268146971#3" arrivalPos="15.54" />
    </person>
    <person id="tn3683" depart="29021.83" departPos="random">
        <ride from="-72562019#2" to="977972909" arrivalPos="68.09" lines="taxi" />
        <walk edges="977972909 -315159485#0 -315159485#1 315159485#2 315159485#3 315159485#4 315159485#5" arrivalPos="3.61" />
    </person>
    <person id="tn1510" depart="29024.98" departPos="random">
        <ride from="-76129128#1" to="-894849663" arrivalPos="34.23" lines="taxi" />
        <walk edges="-894849663 -25418244#0" arrivalPos="11.36" />
    </person>
    <person id="tn1879" depart="29028.86" departPos="random">
        <ride from="-208825827#2" to="-894849663" arrivalPos="34.23" lines="taxi" />
        <walk edges="-894849663 -25418244#0" arrivalPos="1.25" />
    </person>
    <person id="tn4716" depart="29033.00" departPos="random">
        <ride from="894841757" to="-1113164891" arrivalPos="19.64" lines="taxi" />
        <walk edges="-1113164891 1041492060#1" arrivalPos="10.54" />
    </person>
    <person id="tn5137" depart="29041.89" departPos="random">
        <ride from="188730896#3" to="-210208895" arrivalPos="18.71" lines="taxi" />
        <walk edges="-210208895" arrivalPos="36.05" />
    </person>
    <person id="tn4170" depart="29056.49" departPos="random">
        <ride from="239178470#2" to="519913265#1" arrivalPos="10.00" lines="taxi" />
        <walk edges="519913265#1" arrivalPos="16.35" />
    </person>
    <person id="tn4925" depart="29064.99" departPos="random">
        <ride from="-1428300392#0" to="25412019" arrivalPos="14.90" lines="taxi" />
        <walk edges="25412019 25412020#0 152516783#4 152516783#3 152516783#2 152516783#1" arrivalPos="42.78" />
    </person>
    <person id="tn4098" depart="29077.36" departPos="random">
        <ride from="25303411#0" to="519913265#1" arrivalPos="10.00" lines="taxi" />
        <walk edges="519913265#1" arrivalPos="25.64" />
    </person>
    <person id="tn559" depart="29078.45" departPos="random">
        <ride from="-208825827#3" to="-894849663" arrivalPos="34.23" lines="taxi" />
        <walk edges="-894849663 -25418244#0" arrivalPos="13.43" />
    </person>
    <person id="tn4865" depart="29082.46" departPos="random">
        <ride from="189023055#3" to="-210208895" arrivalPos="18.71" lines="taxi" />
        <walk edges="-210208895" arrivalPos="15.51" />
    </person>
    <person id="tn963" depart="29084.35" departPos="random">
        <ride from="1418170811" to="-894849663" arrivalPos="34.23" lines="taxi" />
        <walk edges="-894849663 -25418244#0" arrivalPos="6.89" />
    </person>
    <person id="tn6562" depart="29084.80" departPos="random">
        <ride from="-196750043#0" to="25412019" arrivalPos="14.90" lines="taxi" />
        <walk edges="25412019 25412020#0 152516783#4 152516783#3 152516783#2 152516783#1" arrivalPos="35.88" />
    </person>
    <person id="tn875" depart="29102.63" departPos="random">
        <ride from="-72561717#1" to="-894849663" arrivalPos="34.23" lines="taxi" />
        <walk edges="-894849663 -25418244#0" arrivalPos="2.36" />
    </person>
    <person id="tn3928" depart="29112.07" departPos="random">
        <ride from="-191377224#1" to="1086005529" arrivalPos="102.22" lines="taxi" />
        <walk edges="1086005529 14014136#0 14014136#1 14014136#2 1086005535" arrivalPos="84.61" />
    </person>
    <person id="tn5091" depart="29114.54" departPos="random">
        <ride from="96461184#1" to="25412019" arrivalPos="14.90" lines="taxi" />
        <walk edges="25412019 25412020#0 152516783#4 152516783#3 152516783#2 152516783#1" arrivalPos="11.34" />
    </person>
    <person id="tn85" depart="29122.82" departPos="random">
        <ride from="-391657350#1" to="977972909" arrivalPos="68.09" lines="taxi" />
        <walk edges="977972909 -1136143571" arrivalPos="130.57" />
    </person>
    <person id="tn8514" depart="29127.25" departPos="random">
        <ride from="-1113054108#0" to="740109140" arrivalPos="20.48" lines="taxi" />
        <walk edges="740109140" arrivalPos="10.26" />
    </person>
    <person id="tn8030" depart="29129.12" departPos="random">
        <ride from="-30984018#2" to="-210208895" arrivalPos="18.71" lines="taxi" />
        <walk edges="-210208895" arrivalPos="1.40" />
    </person>
    <person id="tn2278" depart="29129.76" departPos="random">
        <ride from="-208825827#0" to="-894849663" arrivalPos="34.23" lines="taxi" />
        <walk edges="-894849663 -25418244#0" arrivalPos="3.90" />
    </person>
    <person id="tn8504" depart="29134.65" departPos="random">
        <ride from="915198664" to="-210208895" arrivalPos="18.71" lines="taxi" />
        <walk edges="-210208895" arrivalPos="27.55" />
    </person>
    <person id="tn4801" depart="29134.72" departPos="random">
        <ride from="-189023060" to="-268146971#2" arrivalPos="37.39" lines="taxi" />
        <walk edges="-268146971#2 -268146971#3" arrivalPos="25.24" />
    </person>
    <person id="tn410" depart="29139.76" departPos="random">
        <ride from="1086010083" to="-894849663" arrivalPos="34.23" lines="taxi" />
        <walk edges="-894849663 -25418244#0" arrivalPos="0.94" />
    </person>
    <person id="tn2283" depart="29148.12" departPos="random">
        <ride from="-175833044#0" to="-894849663" arrivalPos="34.23" lines="taxi" />
        <walk edges="-894849663 -25418244#0" arrivalPos="2.50" />
    </person>
    <person id="tn287" depart="29150.79" departPos="random">
        <ride from="56191171" to="96461180#5" arrivalPos="16.58" lines="taxi" />
        <walk edges="96461180#5 96461180#6 -1466236176" arrivalPos="11.33" />
    </person>
    <person id="tn2244" depart="29152.80" departPos="random">
        <ride from="-72561717#0" to="-894849663" arrivalPos="34.23" lines="taxi" />
        <walk edges="-894849663 -25418244#0" arrivalPos="4.39" />
    </person>
    <person id="tn7819" depart="29153.51" departPos="random">
        <ride from="30984018#5" to="25412019" arrivalPos="14.90" lines="taxi" />
        <walk edges="25412019 25412020#0 152516783#4 152516783#3 152516783#2 152516783#1" arrivalPos="20.97" />
    </person>
    <person id="tn7905" depart="29155.55" departPos="random">
        <ride from="-268776830#0" to="740109140" arrivalPos="20.48" lines="taxi" />
        <walk edges="740109140" arrivalPos="5.81" />
    </person>
    <person id="tn7392" depart="29161.24" departPos="random">
        <ride from="30984018#3" to="25412019" arrivalPos="14.90" lines="taxi" />
        <walk edges="25412019 25412020#0 152516783#4 152516783#3 152516783#2 152516783#1" arrivalPos="35.08" />
    </person>
    <person id="tn8377" depart="29161.87" departPos="random">
        <ride from="-392160848" to="740109140" arrivalPos="20.48" lines="taxi" />
        <walk edges="740109140" arrivalPos="14.00" />
    </person>
    <person id="tn5722" depart="29169.76" departPos="random">
        <ride from="96461184#0" to="740109140" arrivalPos="20.48" lines="taxi" />
        <walk edges="740109140" arrivalPos="12.21" />
    </person>
    <person id="tn5215" depart="29177.40" departPos="random">
        <ride from="1115015079#0" to="740109140" arrivalPos="20.48" lines="taxi" />
        <walk edges="740109140" arrivalPos="3.17" />
    </person>
    <person id="tn7084" depart="29178.65" departPos="random">
        <ride from="-819945220#1" to="-1113164891" arrivalPos="19.64" lines="taxi" />
        <walk edges="-1113164891 1041492060#1" arrivalPos="1.26" />
    </person>
    <person id="tn302" depart="29182.67" departPos="random">
        <ride from="696033777#1" to="519913265#1" arrivalPos="10.00" lines="taxi" />
        <walk edges="519913265#1" arrivalPos="19.79" />
    </person>
    <person id="tn6923" depart="29183.04" departPos="random">
        <ride from="-120840705#6" to="740109140" arrivalPos="20.48" lines="taxi" />
        <walk edges="740109140" arrivalPos="23.78" />
    </person>
    <person id="tn4903" depart="29193.90" departPos="random">
        <ride from="-1113054108#1" to="740109140" arrivalPos="20.48" lines="taxi" />
        <walk edges="740109140" arrivalPos="19.60" />
    </person>
    <person id="tn9219" depart="29196.56" departPos="random">
        <ride from="888359128#5" to="-268146971#2" arrivalPos="37.39" lines="taxi" />
        <walk edges="-268146971#2 -268146971#3" arrivalPos="5.77" />
    </person>
    <person id="tn7024" depart="29197.77" departPos="random">
        <ride from="96461180#3" to="-1113164891" arrivalPos="19.64" lines="taxi" />
        <walk edges="-1113164891 1041492060#1" arrivalPos="10.70" />
    </person>
    <person id="tn3691" depart="29199.22" departPos="random">
        <ride from="-188730896#4" to="1083273108#2" arrivalPos="7.50" lines="taxi" />
        <walk edges="1083273108#2 1083273108#1" arrivalPos="130.93" />
    </person>
    <person id="tn8994" depart="29210.52" departPos="random">
        <ride from="-88717666#2" to="-268146971#2" arrivalPos="37.39" lines="taxi" />
        <walk edges="-268146971#2 -268146971#3" arrivalPos="16.72" />
    </person>
    <person id="tn3829" depart="29212.11" departPos="random">
        <ride from="543256263#3" to="1086005529" arrivalPos="102.22" lines="taxi" />
        <walk edges="1086005529 14014136#0 1086005528 -1086005527#0 -31061886#0" arrivalPos="36.08" />
    </person>
    <person id="tn3394" depart="29218.13" departPos="random">
        <ride from="-30984012#2" to="519913265#1" arrivalPos="10.00" lines="taxi" />
        <walk edges="519913265#1" arrivalPos="14.06" />
    </person>
    <person id="tn3742" depart="29219.66" departPos="random">
        <ride from="175791807#0" to="209755663#3" arrivalPos="2.55" lines="taxi" />
        <walk edges="209755663#3 209755663#2 -209755663#0 1317098557 59637812#0 59637812#1 -59637812#2 -59637812#3 59637812#4 -59637812#5 59637812#7 -59637812#8 59637812#9 -59637812#10 -1086010084 -1086010083 -175833044#1 175833044#0 175833041 241932762#4 241932762#3 -241932762#2" arrivalPos="235.05" />
    </person>
    <person id="tn392" depart="29225.10" departPos="random">
        <ride from="14014133#1" to="-894849663" arrivalPos="34.23" lines="taxi" />
        <walk edges="-894849663 -25418244#0" arrivalPos="8.18" />
    </person>
    <person id="tn4646" depart="29231.36" departPos="random">
        <ride from="152337234#2" to="740109140" arrivalPos="20.48" lines="taxi" />
        <walk edges="740109140" arrivalPos="28.19" />
    </person>
    <person id="tn5371" depart="29236.41" departPos="random">
        <ride from="-1068735332#3" to="25412019" arrivalPos="14.90" lines="taxi" />
        <walk edges="25412019 25412020#0 152516783#4 152516783#3 152516783#2 152516783#1" arrivalPos="22.59" />
    </person>
    <person id="tn4911" depart="29246.38" departPos="random">
        <ride from="-14014143#1" to="740109140" arrivalPos="20.48" lines="taxi" />
        <walk edges="740109140" arrivalPos="66.01" />
    </person>
    <person id="tn5449" depart="29246.63" departPos="random">
        <ride from="894622277" to="740109140" arrivalPos="20.48" lines="taxi" />
        <walk edges="740109140" arrivalPos="1.61" />
    </person>
    <person id="tn4691" depart="29250.39" departPos="random">
        <ride from="-239178470#3" to="-1113164891" arrivalPos="19.64" lines="taxi" />
        <walk edges="-1113164891 1041492060#1" arrivalPos="4.77" />
    </person>
    <person id="tn4185" depart="29251.02" departPos="random">
        <ride from="26167684#4" to="519913265#1" arrivalPos="10.00" lines="taxi" />
        <walk edges="519913265#1" arrivalPos="2.87" />
    </person>
    <person id="tn7426" depart="29254.37" departPos="random">
        <ride from="196750043#3" to="-268146971#2" arrivalPos="37.39" lines="taxi" />
        <walk edges="-268146971#2 -268146971#3" arrivalPos="23.81" />
    </person>
    <person id="tn8783" depart="29254.81" departPos="random">
        <ride from="382202904#3" to="740109140" arrivalPos="20.48" lines="taxi" />
        <walk edges="740109140" arrivalPos="42.25" />
    </person>
    <person id="tn5024" depart="29262.14" departPos="random">
        <ride from="196526622" to="25412019" arrivalPos="14.90" lines="taxi" />
        <walk edges="25412019 25412020#0 152516783#4 152516783#3 152516783#2 152516783#1" arrivalPos="57.21" />
    </person>
    <person id="tn1152" depart="29264.31" departPos="random">
        <ride from="-66846274" to="-894849663" arrivalPos="34.23" lines="taxi" />
        <walk edges="-894849663 -25418244#0" arrivalPos="6.89" />
    </person>
    <person id="tn6705" depart="29264.37" departPos="random">
        <ride from="769993301#3" to="740109140" arrivalPos="20.48" lines="taxi" />
        <walk edges="740109140" arrivalPos="28.73" />
    </person>
    <person id="tn3612" depart="29266.74" departPos="random">
        <ride from="188730896#6" to="-890169725#1" arrivalPos="3.04" lines="taxi" />
        <walk edges="-890169725#1 -890169725#2 -890169725#3 890169725#5 776871491#0 776871491#1 -776871491#2 -391661581#1 -391661581#0" arrivalPos="12.07" />
    </person>
    <person id="tn3542" depart="29273.69" departPos="random">
        <ride from="14014136#0" to="1050853710" arrivalPos="26.41" lines="taxi" />
        <walk edges="1050853710 -1050853709#1" arrivalPos="1.48" />
    </person>
    <person id="tn6713" depart="29279.55" departPos="random">
        <ride from="-1113452970#0" to="-268146971#2" arrivalPos="37.39" lines="taxi" />
        <walk edges="-268146971#2 -268146971#3" arrivalPos="23.76" />
    </person>
    <person id="tn6568" depart="29284.09" departPos="random">
        <ride from="188730896#0" to="-210208895" arrivalPos="18.71" lines="taxi" />
        <walk edges="-210208895" arrivalPos="28.90" />
    </person>
    <person id="tn1697" depart="29287.44" departPos="random">
        <ride from="349887478" to="-894849663" arrivalPos="34.23" lines="taxi" />
        <walk edges="-894849663 -25418244#0" arrivalPos="13.59" />
    </person>
    <person id="tn7413" depart="29291.08" departPos="random">
        <ride from="-175791807#0" to="25412019" arrivalPos="14.90" lines="taxi" />
        <walk edges="25412019 25412020#0 152516783#4 152516783#3 152516783#2 152516783#1" arrivalPos="18.33" />
    </person>
    <person id="tn2124" depart="29299.58" departPos="random">
        <ride from="-72561717#1" to="-894849663" arrivalPos="34.23" lines="taxi" />
        <walk edges="-894849663 -25418244#0" arrivalPos="5.75" />
    </person>
    <person id="tn6551" depart="29299.82" departPos="random">
        <ride from="-170952322#0" to="-210208895" arrivalPos="18.71" lines="taxi" />
        <walk edges="-210208895" arrivalPos="17.27" />
    </person>
    <person id="tn2123" depart="29302.49" departPos="random">
        <ride from="-426408082#1" to="-894849663" arrivalPos="34.23" lines="taxi" />
        <walk edges="-894849663 -25418244#0" arrivalPos="9.79" />
    </person>
    <person id="tn7605" depart="29313.77" departPos="random">
        <ride from="-39830434#0" to="-268146971#2" arrivalPos="37.39" lines="taxi" />
        <walk edges="-268146971#2 -268146971#3" arrivalPos="2.76" />
    </person>
    <person id="tn4864" depart="29316.28" departPos="random">
        <ride from="-543256264#0" to="740109140" arrivalPos="20.48" lines="taxi" />
        <walk edges="740109140" arrivalPos="31.51" />
    </person>
    <person id="tn4404" depart="29323.87" departPos="random">
        <ride from="-88723957#3" to="-1113164891" arrivalPos="19.64" lines="taxi" />
        <walk edges="-1113164891 1041492060#1" arrivalPos="10.44" />
    </person>
    <person id="tn5798" depart="29325.91" departPos="random">
        <ride from="-170940321#0" to="25412019" arrivalPos="14.90" lines="taxi" />
        <walk edges="25412019 25412020#0 152516783#4 152516783#3 152516783#2 152516783#1" arrivalPos="48.30" />
    </person>
    <person id="tn5023" depart="29326.09" departPos="random">
        <ride from="88723957#2" to="25412019" arrivalPos="14.90" lines="taxi" />
        <walk edges="25412019 25412020#0 152516783#4 152516783#3 152516783#2 152516783#1" arrivalPos="17.39" />
    </person>
    <person id="tn7525" depart="29329.98" departPos="random">
        <ride from="-188730894#0" to="25412019" arrivalPos="14.90" lines="taxi" />
        <walk edges="25412019 25412020#0 152516783#4 152516783#3 152516783#2 152516783#1" arrivalPos="44.05" />
    </person>
    <person id="tn7225" depart="29331.59" departPos="random">
        <ride from="232471144#1" to="25412019" arrivalPos="14.90" lines="taxi" />
        <walk edges="25412019 25412020#0 152516783#4 152516783#3 152516783#2 152516783#1" arrivalPos="7.69" />
    </person>
    <person id="tn5440" depart="29335.17" departPos="random">
        <ride from="916468198#2" to="-268146971#2" arrivalPos="37.39" lines="taxi" />
        <walk edges="-268146971#2 -268146971#3" arrivalPos="19.39" />
    </person>
    <person id="tn1277" depart="29336.72" departPos="random">
        <ride from="-208825827#3" to="-894849663" arrivalPos="34.23" lines="taxi" />
        <walk edges="-894849663 -25418244#0" arrivalPos="1.97" />
    </person>
    <person id="tn9129" depart="29338.85" departPos="random">
        <ride from="-154770319#3" to="25412019" arrivalPos="14.90" lines="taxi" />
        <walk edges="25412019 25412020#0 152516783#4 152516783#3 152516783#2 152516783#1" arrivalPos="54.55" />
    </person>
    <person id="tn8921" depart="29347.04" departPos="random">
        <ride from="-819942945#2" to="-268146971#2" arrivalPos="37.39" lines="taxi" />
        <walk edges="-268146971#2 -268146971#3" arrivalPos="10.10" />
    </person>
    <person id="tn8889" depart="29361.96" departPos="random">
        <ride from="1435131960#1" to="25412019" arrivalPos="14.90" lines="taxi" />
        <walk edges="25412019 25412020#0 152516783#4 152516783#3 152516783#2 152516783#1" arrivalPos="29.69" />
    </person>
    <person id="tn6541" depart="29364.51" departPos="random">
        <ride from="30050433#0" to="-210208895" arrivalPos="18.71" lines="taxi" />
        <walk edges="-210208895" arrivalPos="2.15" />
    </person>
    <person id="tn6804" depart="29366.33" departPos="random">
        <ride from="1113452970#0" to="-210208895" arrivalPos="18.71" lines="taxi" />
        <walk edges="-210208895" arrivalPos="19.68" />
    </person>
    <person id="tn8860" depart="29367.05" departPos="random">
        <ride from="-26167678#1" to="25412019" arrivalPos="14.90" lines="taxi" />
        <walk edges="25412019 25412020#0 152516783#4 152516783#3 152516783#2 152516783#1" arrivalPos="41.77" />
    </person>
    <person id="tn3723" depart="29372.00" departPos="random">
        <ride from="188727260#1" to="-96461182#0" arrivalPos="7.50" lines="taxi" />
        <walk edges="-96461182#0 96461182#1 -96461182#2 -66846274 14014133#2 14014133#3 -56240279#4 56240279#2 -56240279#1 -56240279#0" arrivalPos="52.61" />
    </person>
    <person id="tn5671" depart="29383.09" departPos="random">