<?xml version="1.0" encoding="UTF-8"?>

<!-- generated by Eclipse SUMO duarouter 1.26.0
<duarouterConfiguration xmlns:xsi="http://www.w3.org/2001/XMLSchema-instance" xsi:noNamespaceSchemaLocation="http://sumo.dlr.de/xsd/duarouterConfiguration.xsd">

    <input>
        <net-file value="D:\Dokumente\sumo\maloja\simple.net.xml"/>
        <additional-files value="D:\Dokumente\sumo\maloja\taz_maloja_simple.add.xml,D:\Dokumente\sumo\maloja\07_offseason\taz_offseason.add.xml,D:\Dokumente\sumo\maloja\03_bus\virtualstop.add.xml,D:\Dokumente\sumo\maloja\03_bus\03_November\vtypes.xml,D:\Dokumente\sumo\maloja\03_bus\03_November\gtfs_pt_stops.add.xml"/>
        <route-files value="D:\Dokumente\sumo\maloja\12_non_hotel\persontrips_maloja_non_hotel_offseason.xml,D:\Dokumente\sumo\maloja\03_bus\03_November\gtfs_pt_vehicles.add.xml"/>
    </input>

    <output>
        <output-file value="D:\Dokumente\sumo\maloja\12_non_hotel\persontrips_maloja_non_hotel_resolved_offseason_bus.rou.xml"/>
    </output>

    <processing>
        <persontrip.transfer.taxi-walk value="ptStops"/>
        <persontrip.transfer.walk-taxi value="ptStops"/>
    </processing>

    <report>
        <verbose value="true"/>
    </report>

</duarouterConfiguration>
-->

<routes xmlns:xsi="http://www.w3.org/2001/XMLSchema-instance" xsi:noNamespaceSchemaLocation="http://sumo.dlr.de/xsd/routes_file.xsd">
    <person id="85" depart="28889.60" departPos="random">
        <walk edges="918447407 235361058#1 235361058#0 26167908#4 26167908#3 26167908#1 26167898#1 26167898#0 -30957907" busStop="1008.TA.92-1-N-j24-1.88.H.25"/> <!-- St. Moritz Bad, Campingplatz -->
        <ride busStop="1679.TA.92-1-N-j24-1.90.R.6" intended="3068.TA.92-6-I-j24-1.22.R.0" depart="29750.00"/> <!-- St. Moritz, Schulhausplatz -->
        <ride busStop="1008.TA.92-1-N-j24-1.88.H.14" intended="205.TA.92-9-H-j24-1.10.H.0" depart="30650.00"/> <!-- St. Moritz, Bahnhof -->
        <walk edges="519913263#1 897620166 894622277 519913257#1" arrivalPos="25.50"/>
    </person>
    <person id="32" depart="28958.69" departPos="random">
        <walk edges="185833040#1 185833040#0 -18887954#2 -18887954#1 18887954#0 -31061888#1 -187198083#7 187198083#6 187198083#5 -187198083#3 -187198083#2 187198083#1 187198083#0 -117614806 1136237781 76091870#2 76091870#1 76091870#0 1136237774 76091869#0 -209788013" busStop="459.TA.92-10-J-j24-1.71.H.27"/> <!-- Silvaplana, Camping -->
        <ride busStop="459.TA.92-10-J-j24-1.71.H.29" intended="2158.TA.92-6-I-j24-1.16.H.0" depart="29690.00"/> <!-- Sils/Segl Maria, Posta -->
        <ride busStop="16.TA.96-290-0-j24-1.26.H.9" intended="29.TA.96-290-0-j24-1.10.H.0" depart="30950.00"/> <!-- Vicosoprano, Plazza -->
        <walk edges="-890169725#1 -890169725#0 890169724#2" arrivalPos="19.95"/>
    </person>
    <person id="81" depart="29197.95" departPos="random">
        <walk edges="-30957910#1 -30957910#2 152385705#2 152385705#1 -152385705#0 25303487#3" busStop="1679.TA.92-1-N-j24-1.90.R.4"/> <!-- St. Moritz Bad, Via Salet -->
        <ride busStop="1008.TA.92-1-N-j24-1.88.H.14" intended="2689.TA.92-1-N-j24-1.100.R.0" depart="29630.00"/> <!-- St. Moritz, Bahnhof -->
        <walk edges="519913263#1 519913263#0 897592613 904728442 916468197 72562096#0 89724876#3 89724876#2 916015459#0" arrivalPos="0.24"/>
    </person>
    <person id="64" depart="29217.29" departPos="random">
        <walk edges="-268152262#5 -268152262#6 1115015078#0 -1115015078#1 -1115015078#2 1115015078#3 1115015077#1 -1115015077#2 391952926#1 391952926#2 -391952926#3 -39830434#2 39830434#1 39830434#0 268146940#2 -578147406 1005048062#1 -1005048061#0 1005048061#1 -1005048061#2 -152522410#1 819942940#1 819942940#0 -1005052428#2 1005052428#1 -41595601#5 41595601#4 41595601#3 -41595601#2 41595601#0 819945210#0 -1467922383 819945211 -819942944#4 819942944#3" busStop="1008.TA.92-1-N-j24-1.88.H.15"/> <!-- St. Moritz, Klinik Gut -->
        <ride busStop="1008.TA.92-1-N-j24-1.88.H.25" intended="667.TA.92-6-I-j24-1.3.H.0" depart="30530.00"/> <!-- St. Moritz Bad, Campingplatz -->
        <ride busStop="1008.TA.92-1-N-j24-1.88.H.26" intended="1153.TA.92-1-N-j24-1.89.H.0" depart="31610.00"/> <!-- Silvaplana, Rundella Curtins -->
        <ride busStop="459.TA.92-10-J-j24-1.71.H.29" intended="980.TA.92-2-L-j24-1.15.H.0" depart="31970.00"/> <!-- Sils/Segl Maria, Posta -->
        <walk edges="-894905824 -256959704#0 -209755663#4 209755663#3 209755663#2 -209755663#0 1317098557 59637812#0 59637812#1 -59637812#2 -59637812#3 59637812#4 -59637812#5 59637812#7 59637812#8" arrivalPos="108.49"/>
    </person>
    <person id="26" depart="29784.39" departPos="random">
        <walk edges="59637812#3 -59637812#2 59637812#1 59637812#0 -58413640#0 -209755663#0 209755663#2 209755663#3" busStop="1136.TA.92-10-J-j24-1.22.R.5"/> <!-- Sils/Segl Maria, Posta -->
        <ride busStop="1136.TA.92-10-J-j24-1.22.R.7" intended="61.TA.96-290-0-j24-1.30.R.0" depart="30230.00"/> <!-- Silvaplana, Camping -->
        <walk edges="76091869#1 76091869#0 1136237774 -76091870#0 76091870#1 76091870#2 1136237781 -117614806 116077721#0 116077721#1 116077721#2 -116077721#3 186141915#0 -186141915#1 1430507283 -645951511#0 1085798451 1068941219#1" arrivalPos="36.60"/>
    </person>
    <person id="84" depart="30023.00" departPos="random">
        <walk edges="519913261#0 -897592613 519913263#0 519913263#1" arrivalPos="1.24"/>
    </person>
    <person id="14" depart="30450.73" departPos="random">
        <walk edges="150335026#4 -150335026#4 -58413641 -58413640#0 -209755663#0 209755663#2 209755663#3 -209755663#4 -96461185 1068735318#0 -1068735318#1 -1068735318#2 -256959702#0 -256959702#1 -256959702#2 -150277078#0 150277078#1 -150277078#2 -150277078#3 -56195874#7 56195874#6 56195874#5 -56195874#2 -239035118#0" arrivalPos="23.63"/>
    </person>
    <person id="25" depart="30552.65" departPos="random">
        <walk edges="-56085323#0 -56085323#1 56085325#0 -52959697#3 -52959697#2 52959697#1 52959697#0 1201541125 -150277078#5 150277078#4 -150277078#3 -150277078#2 150277078#1 256959702#3 -256959702#2 -256959702#1 -256959702#0 -1068735318#2 -1068735318#1 1068735318#0 96461185 -209755663#4 209755663#3 209755663#2 -209755663#0 1317098557 -58413641 -150335026#4 150335026#3 -150335026#2 150335026#1 150335026#0 -888425580#0 973459742#3 973459742#2 -973459742#1 -973459742#0 56240189#9 -56240189#8 56240189#7 -56240189#5 56240189#4 -56240189#3 56240189#2 -56240189#0 -188063062" arrivalPos="4.71"/>
    </person>
    <person id="48" depart="30772.95" departPos="random">
        <walk edges="-116847803 31061889#0 31061888#1 116715858 147218475#2 -147218475#0 1086005527#0 1086005528 14014136#0 1136237770 1086005533" busStop="2467.TA.92-1-N-j24-1.95.R.3"/> <!-- Silvaplana, Rundella Curtins -->
        <ride busStop="1136.TA.92-10-J-j24-1.22.R.22" intended="4666.TA.92-6-I-j24-1.34.R.0" depart="31790.00"/> <!-- St. Moritz, Schulhausplatz -->
        <walk edges="894576901#0 152337236#1 -41595601#5 41595601#4 41595601#3 -41595601#2 41595601#0 819945210#0 -1467922383 819945211 -819942944#4" busStop="1679.TA.92-1-N-j24-1.90.R.6"/> <!-- St. Moritz, Schulhausplatz -->
        <ride busStop="1008.TA.92-1-N-j24-1.88.H.14" intended="3050.TA.92-1-N-j24-1.101.R.0" depart="33530.00"/> <!-- St. Moritz, Bahnhof -->
        <walk edges="519913263#1 519913263#0 -120840710 519913265#0 519913265#1" arrivalPos="14.95"/>
    </person>
    <person id="68" depart="30891.43" departPos="random">
        <walk edges="30952515#1 -30952515#0" busStop="2386.TA.92-1-N-j24-1.93.R.1"/> <!-- Champfèr, Schulhaus -->
        <ride busStop="1008.TA.92-1-N-j24-1.88.H.25" intended="3062.TA.92-6-I-j24-1.22.R.0" depart="31490.00"/> <!-- St. Moritz Bad, Campingplatz -->
        <ride busStop="1008.TA.92-1-N-j24-1.88.H.26" intended="1153.TA.92-1-N-j24-1.89.H.0" depart="31610.00"/> <!-- Silvaplana, Rundella Curtins -->
        <walk edges="1086005529 14014136#0 14014136#1 14014136#2 1136237773" arrivalPos="0.15"/>
    </person>
    <person id="62" depart="30915.84" departPos="random">
        <walk edges="-37804543#2 37804543#3 -37804543#4 -1161282679#1 -1161282679#0 268146940#6 268146940#5 -268146940#4 268146940#3 268146940#2 -268146940#1 -268146940#0 -268146944#1 268146944#0 25412020#0 25412019" busStop="262.TA.92-10-J-j24-1.4.H.10"/> <!-- St. Moritz, Schulhausplatz -->
        <ride busStop="1008.TA.92-1-N-j24-1.88.H.26" intended="2215.TA.92-6-I-j24-1.16.H.0" depart="31730.00"/> <!-- Silvaplana, Rundella Curtins -->
        <walk edges="1086005529 14014136#0 14014136#1 14014136#2 1086005535 -209788013" busStop="459.TA.92-10-J-j24-1.71.H.27"/> <!-- Silvaplana, Camping -->
        <ride busStop="459.TA.92-10-J-j24-1.71.H.28" intended="2215.TA.92-6-I-j24-1.16.H.0" depart="33290.00"/> <!-- Sils/Segl Maria, Seglias -->
        <ride busStop="459.TA.92-10-J-j24-1.71.H.29" intended="3.TA.96-290-0-j24-1.2.H.0" depart="33650.00"/> <!-- Sils/Segl Maria, Posta -->
        <walk edges="-894905824 -256959704#0 -209755663#4 209755663#3 209755663#2 -209755663#0 1317098557 59637812#0 59637812#1 -59637812#2 -59637812#3 59637812#4 -59637812#5 59637812#7 -59637812#8 59637812#9 -59637812#10 -1086010084 -1086010083 -175833044#1 175833044#0 175833041 241932762#4 241932762#3 -241932762#2 241932762#1 241932762#0 -426408082#1 426408082#0 -426408076#5 426408076#4 426408076#3 -426408076#2 -426408076#1 -426408076#0" arrivalPos="1.37"/>
    </person>
    <person id="50" depart="30960.73" departPos="random">
        <walk edges="519913257#1" busStop="1.TA.92-4-Q-j24-1.7.R.13"/> <!-- St. Moritz, Bahnhof -->
        <ride busStop="1008.TA.92-1-N-j24-1.88.H.25" intended="198.TA.96-260-1-j24-1.12.R.0" depart="31070.00"/> <!-- St. Moritz Bad, Campingplatz -->
        <ride busStop="1008.TA.92-1-N-j24-1.88.H.26" intended="1153.TA.92-1-N-j24-1.89.H.0" depart="31610.00"/> <!-- Silvaplana, Rundella Curtins -->
        <ride busStop="459.TA.92-10-J-j24-1.71.H.34" intended="980.TA.92-2-L-j24-1.15.H.0" depart="31970.00"/> <!-- Maloja, Posta -->
        <walk edges="894576903 -170952349#1 170952349#0 1068729371#2 -1068729371#1 1068729371#0 315159485#6 -315159485#5 -315159485#4 315159485#3 -315159485#2 -315159485#1 315159485#0 -977972909 -501346489#2" busStop="16.TA.96-290-0-j24-1.26.H.1"/> <!-- Maloja, Cad'Maté -->
        <ride busStop="16.TA.96-290-0-j24-1.26.H.9" intended="21.TA.96-290-0-j24-1.10.H.0" depart="35270.00"/> <!-- Vicosoprano, Plazza -->
        <walk edges="-890169725#1 -890169725#2 -890169725#3 -890169725#5" arrivalPos="4.83"/>
    </person>
    <person id="76" depart="32681.32" departPos="random">
        <walk edges="25366042#2 -25366042#1 25366042#0 268146940#5 -268146940#4 268146940#3 268146940#2 -578147406 1005048062#1 -1005048061#0 1005048061#1 -1005048061#2 -152522410#1 819942940#1 819942940#0 -1005052428#2 1005052428#1 -41595601#5 41595601#4 41595601#3 -41595601#2 41595601#0 819945210#0 819945209 -152517443#2 -152517443#1" busStop="1008.TA.92-1-N-j24-1.88.H.17"/> <!-- St. Moritz, Caspar Badrutt -->
        <ride busStop="1008.TA.92-1-N-j24-1.88.H.23" intended="1477.TA.92-6-I-j24-1.11.H.0" depart="33530.00"/> <!-- St. Moritz Bad, Via San Gian -->
        <ride busStop="1008.TA.92-1-N-j24-1.88.H.25" intended="562.TA.92-6-I-j24-1.3.H.0" depart="34550.00"/> <!-- St. Moritz Bad, Campingplatz -->
        <ride busStop="1008.TA.92-1-N-j24-1.88.H.28" intended="1564.TA.92-1-N-j24-1.89.H.0" depart="35210.00"/> <!-- Surlej, Foppas -->
        <walk edges="30957916#1" arrivalPos="21.35"/>
    </person>
    <person id="94" depart="32975.39" departPos="random">
        <walk edges="819942944#3 819942944#2 -152520535 1068735337 819942945#2 -819942945#0 1068735342#1 1068735342#0 -47578286 120840712#0 903531446 120840710 897592613 904728442 519913257#0 519913257#1" arrivalPos="12.94"/>
    </person>
    <person id="21" depart="32987.11" departPos="random">
        <walk edges="-256959700#0 -256959700#2 -256959703#2 -256959703#1 175050124#1 175050124#0 -256959702#2 -256959702#1 -256959702#0 -1068735318#2 -1068735318#1 1068735318#0 96461185 -209755663#4 209755663#3 209755663#2 -209755663#0 1317098557 -58413641 -150335026#4 150335026#3 -150335026#2 150335026#1 150335026#0" arrivalPos="22.84"/>
    </person>
    <person id="70" depart="33377.06" departPos="random">
        <walk edges="30952527#1 -30952527#1 -72562019#1 72562019#0 72562018 1068735331 30957906 1068735330#7 -1068735330#5 1068735330#4 -1068735330#2 1068735330#1" arrivalPos="4.83"/>
    </person>
    <person id="35" depart="33784.81" departPos="random">
        <walk edges="116511577#0 -187198083#3 -187198083#2 187198083#1 187198083#0 -117614806 1136237781 76091870#2 76091870#1 76091870#0 1136237774 76091869#0 -209788013" busStop="459.TA.92-10-J-j24-1.71.H.27"/> <!-- Silvaplana, Camping -->
        <ride busStop="459.TA.92-10-J-j24-1.71.H.29" intended="948.TA.92-2-L-j24-1.15.H.0" depart="35630.00"/> <!-- Sils/Segl Maria, Posta -->
        <walk edges="-894905824 -256959704#0 -209755663#4 209755663#3 209755663#2 -209755663#0 1317098557 -58413641 -150335026#4 150335026#3 150335026#2" arrivalPos="2.60"/>
    </person>
    <person id="34" depart="33827.64" departPos="random">
        <walk edges="116507539#1 -116507539#0 1136237777 76091870#1 76091870#0 1136237774 76091869#0 -209788013" busStop="459.TA.92-10-J-j24-1.71.H.27"/> <!-- Silvaplana, Camping -->
        <ride busStop="14.TA.96-290-0-j24-1.25.H.7" intended="21.TA.96-290-0-j24-1.10.H.0" depart="34010.00"/> <!-- Casaccia, Villaggio -->
        <walk edges="-633986854#1 -68115526#1 68115526#0 -68115532" arrivalPos="61.26"/>
    </person>
    <person id="49" depart="33886.20" departPos="random">
        <walk edges="-187633169#3 187633169#3 -187633169#2 -187633169#1 -187633169#0 -1050853680 -25418588#1" busStop="2467.TA.92-1-N-j24-1.95.R.2"/> <!-- Surlej, Punt -->
        <ride busStop="2467.TA.92-1-N-j24-1.95.R.3" intended="2467.TA.92-1-N-j24-1.95.R.0" depart="34250.00"/> <!-- Silvaplana, Rundella Curtins -->
        <ride busStop="1136.TA.92-10-J-j24-1.22.R.22" intended="1379.TA.92-2-L-j24-1.27.R.0" depart="34430.00"/> <!-- St. Moritz, Schulhausplatz -->
        <walk edges="894576901#0" arrivalPos="10.98"/>
    </person>
    <person id="46" depart="34028.84" departPos="random">
        <walk edges="-30957916#3 30957916#3 -30957916#2 30957916#1" arrivalPos="31.31"/>
    </person>
    <person id="82" depart="34261.17" departPos="random">
        <walk edges="30050433#0 -96461184#1 96461184#0 -30957915" busStop="1679.TA.92-1-N-j24-1.90.R.3"/> <!-- St. Moritz Bad, Kath. Kirche -->
        <ride busStop="1679.TA.92-1-N-j24-1.90.R.5" intended="2467.TA.92-1-N-j24-1.95.R.0" depart="34970.00"/> <!-- St. Moritz Bad, Via Aruons -->
        <walk edges="152517715#3 152517715#1" arrivalPos="3.47"/>
    </person>
    <person id="30" depart="34296.51" departPos="random">
        <walk edges="-198123925#1 198123925#1 198123925#0 426408073 -175833043 -175833047#2 -175833047#1 175833047#0 175833041 175833044#0 -175833044#1 -1086010083 -1086010084 -59637812#10 59637812#9 -59637812#8 59637812#7 -59637812#5 59637812#4 -59637812#3 -59637812#2 59637812#1 59637812#0 -58413640#0 -209755663#0 209755663#2 209755663#3" busStop="1136.TA.92-10-J-j24-1.22.R.5"/> <!-- Sils/Segl Maria, Posta -->
        <ride busStop="2467.TA.92-1-N-j24-1.95.R.3" intended="55.TA.96-290-0-j24-1.29.R.0" depart="36950.00"/> <!-- Silvaplana, Rundella Curtins -->
        <ride busStop="1008.TA.92-1-N-j24-1.88.H.25" intended="41.TA.96-290-0-j24-1.35.R.0" depart="37550.00"/> <!-- St. Moritz Bad, Campingplatz -->
        <walk edges="-30957907 26167898#0 26167898#1 -26167908#1 26167908#3 26167908#4 235361058#0 235361058#1" arrivalPos="70.38"/>
    </person>
    <person id="11" depart="34366.98" departPos="random">
        <walk edges="-256959704#0 -894905824" busStop="459.TA.92-10-J-j24-1.71.H.29"/> <!-- Sils/Segl Maria, Posta -->
        <ride busStop="16.TA.96-290-0-j24-1.26.H.16" intended="21.TA.96-290-0-j24-1.10.H.0" depart="34550.00"/> <!-- Promontogno, Punt Spizarun -->
        <walk edges="1426892794#3 391649038#2" arrivalPos="7.34"/>
    </person>
    <person id="22" depart="34577.48" departPos="random">
        <walk edges="175834671 -208882165#0 208882165#1 696033777#0 -208882166 -14014131#1 14014131#0 14014133#2 -66846274 -96461182#2 96461182#1 -96461182#0" arrivalPos="18.25"/>
    </person>
    <person id="18" depart="34645.72" departPos="random">
        <walk edges="-56195874#6 -56195874#7 -150277078#3 -150277078#2 150277078#1 256959702#3 -256959702#2 -256959702#1 -256959702#0 -1068735318#2 -1068735318#1 1068735318#0 96461185 -209755663#4 209755663#3 209755663#2 -209755663#0 1317098557 -58413641 -150335026#4 150335026#3 -150335026#2 150335026#1 150335026#0 -888425580#0 973459742#3 973459742#2 -973459742#1 -973459742#0 56240189#9 -56240189#8 56240189#7 -56240189#5 56240189#4 -56240189#3 56240189#2 -56240189#0 -188063062" arrivalPos="17.89"/>
    </person>
    <person id="88" depart="35263.26" departPos="random">
        <walk edges="769993301#5 19724261 170952324#0 170952324#1" busStop="1679.TA.92-1-N-j24-1.90.R.0"/> <!-- St. Moritz Bad, Via San Gian -->
        <ride busStop="1679.TA.92-1-N-j24-1.90.R.6" intended="2884.TA.92-6-I-j24-1.22.R.0" depart="35330.00"/> <!-- St. Moritz, Schulhausplatz -->
        <ride busStop="1008.TA.92-1-N-j24-1.88.H.14" intended="128.TA.92-9-H-j24-1.10.H.0" depart="36050.00"/> <!-- St. Moritz, Bahnhof -->
        <walk edges="519913263#1 519913259 519913265#1" arrivalPos="22.60"/>
    </person>
    <person id="78" depart="35367.72" departPos="random">
        <walk edges="888359128#4 14014151 -1127470773 -232471144#0" arrivalPos="36.61"/>
    </person>
    <person id="0" depart="35482.39" departPos="random">
        <walk edges="-1083277954 -429497062#0 -429497062#1 1083261780 -1083261781#0 -1083261781#1 1083261779 -370855281#0 370855281#1" busStop="1.TA.96-290-3-j24-1.1.H.1"/> <!-- Soglio, Plazza -->
        <ride busStop="1.TA.96-290-3-j24-1.1.H.4" intended="3.TA.96-290-3-j24-1.1.H.0" depart="36890.00"/> <!-- Promontogno, Posta -->
        <walk edges="120829159" busStop="14.TA.96-290-0-j24-1.25.H.11"/> <!-- Promontogno, Posta -->
        <ride busStop="36.TA.96-290-0-j24-1.27.R.9" intended="58.TA.96-290-0-j24-1.29.R.0" depart="37910.00"/> <!-- Casaccia, Löbbia -->
        <walk edges="430248865#10 430248865#9 -430248865#8 430248865#7 1054486961#0 -1054486961#1 1054486961#2" arrivalPos="169.01"/>
    </person>
    <person id="74" depart="35846.06" departPos="random">
        <walk edges="88717666#4 -88717666#3 88717666#2 88717666#1 -96461180#4 96461180#3 -96461180#1 96461180#0 -30050433#3 -30050433#2 -30050433#1 30050433#0 -51814855 170940321#0 -170940321#1 170952324#5 -170952324#3 170952324#2 -170952324#1" busStop="1008.TA.92-1-N-j24-1.88.H.23"/> <!-- St. Moritz Bad, Via San Gian -->
        <ride busStop="1008.TA.92-1-N-j24-1.88.H.28" intended="733.TA.92-1-N-j24-1.81.H.0" depart="36950.00"/> <!-- Surlej, Foppas -->
        <walk edges="30957916#1" arrivalPos="24.93"/>
    </person>
    <person id="63" depart="35863.86" departPos="random">
        <walk edges="-268146971#2 -268146971#1 268146971#0 769993301#2 769993301#1 769993301#0 19724261 170952324#0 -170952324#1" busStop="1008.TA.92-1-N-j24-1.88.H.23"/> <!-- St. Moritz Bad, Via San Gian -->
        <ride busStop="2386.TA.92-1-N-j24-1.93.R.0" intended="463.TA.92-6-I-j24-1.3.H.0" depart="36350.00"/> <!-- Champfèr, Guardalej -->
        <walk edges="1068735330#7 -1068735330#5 1068735330#4 -1068735330#2 -1068735330#1" busStop="459.TA.92-10-J-j24-1.71.H.21"/> <!-- Champfèr, Guardalej -->
        <ride busStop="1008.TA.92-1-N-j24-1.88.H.26" intended="155.TA.92-2-L-j24-1.3.H.0" depart="36890.00"/> <!-- Silvaplana, Rundella Curtins -->
        <ride busStop="459.TA.92-10-J-j24-1.71.H.29" intended="1.TA.96-291-0-j24-1.3.H.0" depart="37430.00"/> <!-- Sils/Segl Maria, Posta -->
        <walk edges="-894905824 -256959704#0 -209755663#4 209755663#3 209755663#2 -209755663#0 1317098557 59637812#0 59637812#1 -59637812#2 -59637812#3 59637812#4 -59637812#5 59637812#7 -59637812#8 59637812#9 -59637812#10 -1086010084 -1086010083 -175833044#1 175833044#0 175833041 241932762#4 241932762#3 -241932762#2 241932762#1 241932762#0 -426408082#1 426408082#0 -426408076#5 426408076#4 426408076#3 -426408076#2 -426408076#1 278156729#5 278156729#4 278156729#3" arrivalPos="31.55"/>
    </person>
    <person id="120" depart="36179.52" departPos="random">
        <walk edges="-210208895 1115015079#2 -1115015079#3 268152262#1 -268152262#2 268152262#3 268152262#4 -268152262#5 -268152262#6 1115015078#0 -1115015078#1 -1115015078#2 1115015078#3 1115015077#1 -1115015077#2 391952926#1 391952926#2 -391952926#3 -39830434#2 39830434#1 39830434#0 268146940#2 -578147406 1005048062#1 -1005048061#0 1005048061#1 -1005048061#2 -152522410#1 819942940#1 819942940#0 -1005052428#2 1005052428#1 -41595601#5 41595601#4 41595601#3 -41595601#2 41595601#0 819945210#0 -1467922383 819945211 -819942944#4 819942944#3 819942944#2 -152520535 1068735337 819942945#2 -819942945#0 1068735342#1 1068735342#0 -47578286 120840712#0 903531446 519913265#0 519913265#1" arrivalPos="0.89"/>
    </person>
    <person id="243" depart="36202.95" departPos="random">
        <walk edges="-72562019#2 72562019#2 -72562019#1 72562019#0 72562018 1068735331 30957906 1068735330#7 -1068735330#5 1068735330#4 -1068735330#2 -1068735330#1" busStop="459.TA.92-10-J-j24-1.71.H.21"/> <!-- Champfèr, Guardalej -->
        <ride busStop="1008.TA.92-1-N-j24-1.88.H.26" intended="155.TA.92-2-L-j24-1.3.H.0" depart="36890.00"/> <!-- Silvaplana, Rundella Curtins -->
        <walk edges="1086005529 1136237770 1086005533" busStop="2467.TA.92-1-N-j24-1.95.R.3"/> <!-- Silvaplana, Rundella Curtins -->
        <ride busStop="1008.TA.92-1-N-j24-1.88.H.14" intended="55.TA.96-290-0-j24-1.29.R.0" depart="37430.00"/> <!-- St. Moritz, Bahnhof -->
        <walk edges="519913263#1 519913263#0 897592613 519913261#0 519913261#1" arrivalPos="8.55"/>
    </person>
    <person id="33" depart="36262.18" departPos="random">
        <walk edges="-182550686#0 182550686#0 182098926 209788024#0 -209788024#1 182095936#0 182095936#1 1136239035#0 1136239035#1 -209788015 1219863759 1219863760#1 -72561993#1 72561993#0 1086005529" busStop="1008.TA.92-1-N-j24-1.88.H.26"/> <!-- Silvaplana, Rundella Curtins -->
        <ride busStop="16.TA.96-290-0-j24-1.26.H.16" intended="28.TA.96-290-0-j24-1.10.H.0" depart="37610.00"/> <!-- Promontogno, Punt Spizarun -->
        <walk edges="1426892794#3 71759543#0 -71759543#1 71759543#2 -71759543#3 522706570#0 -522706566#1 522706566#0 -522706560#1 522703215#2" arrivalPos="0.15"/>
    </person>
    <person id="183" depart="36292.21" departPos="random">
        <walk edges="916468195#0 1189801665 1189801664 89724876#5 916468198#2 916468198#1 916468197 519913257#0 519913257#1" arrivalPos="4.55"/>
    </person>
    <person id="166" depart="36326.27" departPos="random">
        <walk edges="1116543561#3 -1116543561#2 -1116543561#1 1116543561#0 152385705#2 152385705#1 -152385705#0 25303487#3" busStop="1679.TA.92-1-N-j24-1.90.R.4"/> <!-- St. Moritz Bad, Via Salet -->
        <ride busStop="1008.TA.92-1-N-j24-1.88.H.14" intended="3092.TA.92-1-N-j24-1.101.R.0" depart="36830.00"/> <!-- St. Moritz, Bahnhof -->
        <walk edges="519913263#1 897620166 894622277 519913257#1" arrivalPos="27.38"/>
    </person>
    <person id="116" depart="36424.84" departPos="random">
        <walk edges="187633173#1 -187633173#0 187633169#4 187633169#3 -187633169#2 -187633169#1 -187633169#0 -1050853680 -25418588#1 19738790#1 19738790#0 -1050853679 -19738795 1086005531 1086005530 1136237769 1086005533" busStop="2467.TA.92-1-N-j24-1.95.R.3"/> <!-- Silvaplana, Rundella Curtins -->
        <ride busStop="1008.TA.92-1-N-j24-1.88.H.14" intended="55.TA.96-290-0-j24-1.29.R.0" depart="37430.00"/> <!-- St. Moritz, Bahnhof -->
        <walk edges="519913263#1" arrivalPos="0.85"/>
    </person>
    <person id="194" depart="36429.67" departPos="random">
        <walk edges="-819945220#2 819945220#1 819945220#0 120840708 -30957915" busStop="1679.TA.92-1-N-j24-1.90.R.3"/> <!-- St. Moritz Bad, Kath. Kirche -->
        <ride busStop="1008.TA.92-1-N-j24-1.88.H.14" intended="3092.TA.92-1-N-j24-1.101.R.0" depart="36770.00"/> <!-- St. Moritz, Bahnhof -->
        <walk edges="519913263#1 519913263#0 897592613 519913261#0 519913261#1" arrivalPos="19.42"/>
    </person>
    <person id="15" depart="36445.38" departPos="random">
        <walk edges="-241932762#0 241932762#1 -241932762#2 241932762#3 -241932762#4 175833047#0 -175833047#1 -175833047#2 -175833043 -426408073 198123925#0 198123925#1" arrivalPos="35.31"/>
    </person>
    <person id="246" depart="36446.89" departPos="random">
        <walk edges="152516783#1 152516783#2 152516783#3 152516783#4 25412020#0 25412019 152337236#1 -41595601#5 41595601#4 41595601#3 -41595601#2 41595601#0 819945210#0 -1467922383 819945211 -819942944#4" busStop="1679.TA.92-1-N-j24-1.90.R.6"/> <!-- St. Moritz, Schulhausplatz -->
        <ride busStop="1008.TA.92-1-N-j24-1.88.H.14" intended="3092.TA.92-1-N-j24-1.101.R.0" depart="37130.00"/> <!-- St. Moritz, Bahnhof -->
        <walk edges="519913263#1 519913263#0 897592613 904728442 519913257#0 519913257#1" arrivalPos="3.70"/>
    </person>
    <person id="176" depart="36462.52" departPos="random">
        <walk edges="1466236176 96461180#6 -96461180#5" busStop="1128.TA.92-9-H-j24-1.12.R.0"/> <!-- St. Moritz Bad, Youth Hostel -->
        <ride busStop="1008.TA.92-1-N-j24-1.88.H.22" intended="1926.TA.92-9-H-j24-1.12.R.0" depart="36890.00"/> <!-- St. Moritz Bad, Hallenbad -->
        <walk edges="170940321#0 -170940321#1 170952322#0 170952322#1" busStop="2.TA.92-4-Q-j24-1.8.R.13"/> <!-- St. Moritz Bad, Hallenbad -->
        <ride busStop="154.TA.92-1-N-j24-1.77.H.0" intended="1926.TA.92-9-H-j24-1.12.R.0" depart="37190.00"/> <!-- St. Moritz, Bahnhof -->
        <walk edges="519913261#1 519913261#0 -897592613 519913263#0 519913263#1" arrivalPos="3.55"/>
    </person>
    <person id="191" depart="36464.16" departPos="random">
        <walk edges="-317053074 -382202903#1 382202903#2 -382202903#3 1441721435 -1132581922 -30957915" busStop="1679.TA.92-1-N-j24-1.90.R.3"/> <!-- St. Moritz Bad, Kath. Kirche -->
        <ride busStop="1008.TA.92-1-N-j24-1.88.H.14" intended="3092.TA.92-1-N-j24-1.101.R.0" depart="36770.00"/> <!-- St. Moritz, Bahnhof -->
        <walk edges="519913263#1 519913263#0 897592613 904728442 519913257#0 519913257#1" arrivalPos="11.77"/>
    </person>
    <person id="229" depart="36541.29" departPos="random">
        <walk edges="210208895 -210208895 1115015079#2 -1115015079#3 268152262#1 -268152262#2 268152262#3 268152262#4 -268152262#5 -268152262#6 1115015078#0 -1115015078#1 -1115015078#2 1115015078#3 1115015077#1 -1115015077#2 391952926#1 391952926#2 -391952926#3 -39830434#2 39830434#1 39830434#0 268146940#2 -578147406 1005048062#1 -1005048061#0 1005048061#1 -1005048061#2 -152522410#1 819942940#1 819942940#0 -1005052428#2 1005052428#1 -41595601#5 41595601#4 41595601#3 -41595601#2 41595601#0 819945210#0 -1467922383 819945211 -819942944#4" busStop="1679.TA.92-1-N-j24-1.90.R.6"/> <!-- St. Moritz, Schulhausplatz -->
        <ride busStop="1008.TA.92-1-N-j24-1.88.H.14" intended="2511.TA.92-1-N-j24-1.95.R.0" depart="38930.00"/> <!-- St. Moritz, Bahnhof -->
        <walk edges="519913263#1 897620166 894622277 519913257#1" arrivalPos="27.61"/>
    </person>
    <person id="105" depart="36572.23" departPos="random">
        <walk edges="256959704#0 -209755663#4 209755663#3" busStop="1136.TA.92-10-J-j24-1.22.R.5"/> <!-- Sils/Segl Maria, Posta -->
        <ride busStop="1008.TA.92-1-N-j24-1.88.H.14" intended="55.TA.96-290-0-j24-1.29.R.0" depart="36950.00"/> <!-- St. Moritz, Bahnhof -->
        <walk edges="519913263#1 519913263#0 897592613 519913261#0 519913261#1" arrivalPos="7.49"/>
    </person>
    <person id="126" depart="36592.10" departPos="random">
        <walk edges="391952926#2 -391952926#3 -39830434#2 39830434#1 39830434#0 268146940#2 -578147406 1005048062#1 -1005048061#0 1005048061#1 -1005048061#2 -152522410#1 819942940#1 819942940#0 -1005052428#2 1005052428#1 -41595601#5 41595601#4 41595601#3 -41595601#2 41595601#0 819945210#0 -1467922383 819945211 -819942944#4 819942944#3 819942944#2 -152520535 1068735337 819942945#2 -819942945#0 1068735342#1 1068735342#0 -47578286 120840712#0 903531446 120840710 897592613 519913261#0 519913261#1" arrivalPos="6.33"/>
    </person>
    <person id="113" depart="36634.78" departPos="random">
        <walk edges="-116715856 147218475#2 -147218475#0 1086005527#0 1086005528 14014136#0 1136237770 1086005533" busStop="2467.TA.92-1-N-j24-1.95.R.3"/> <!-- Silvaplana, Rundella Curtins -->
        <ride busStop="1008.TA.92-1-N-j24-1.88.H.14" intended="55.TA.96-290-0-j24-1.29.R.0" depart="37430.00"/> <!-- St. Moritz, Bahnhof -->
        <walk edges="519913263#1 519913263#0 897592613 904728442 519913257#0 519913257#1" arrivalPos="4.81"/>
    </person>
    <person id="158" depart="36676.92" departPos="random">
        <walk edges="175791807#1 -175791807#1 1158102646 175791806#0 -175791806#1 -317053074 -30957914#2 -30957914#1 30957914#0 170952322#1" busStop="2.TA.92-4-Q-j24-1.8.R.13"/> <!-- St. Moritz Bad, Hallenbad -->
        <ride busStop="154.TA.92-1-N-j24-1.77.H.0" intended="1926.TA.92-9-H-j24-1.12.R.0" depart="37190.00"/> <!-- St. Moritz, Bahnhof -->
        <walk edges="519913261#1 519913261#0 -897592613 -120840710 519913265#0 519913265#1" arrivalPos="15.67"/>
    </person>
    <person id="195" depart="36709.44" departPos="random">
        <walk edges="-1161282679#4 -1161282679#3 1161282679#2 -37804543#4 37804543#3 -37804543#2 -37804543#1 37804543#0 -120840712#3 -47578286 120840712#0 903531446 120840710 897592613 904728442 519913257#0 519913257#1" arrivalPos="6.91"/>
    </person>
    <person id="52" depart="36840.52" departPos="random">