<?xml version="1.0" encoding="UTF-8"?>

<!-- generated by Eclipse SUMO netedit 1.26.0
-->

<additional xmlns:xsi="http://www.w3.org/2001/XMLSchema-instance" xsi:noNamespaceSchemaLocation="http://sumo.dlr.de/xsd/additional_file.xsd">
    <!-- TAZs -->
    <taz id="taz_ski_aela" shape="21388.72,15688.34 21409.20,15679.82 21406.87,15669.61 21387.36,15678.78 21388.85,15688.15 21388.72,15688.34" color="red">
        <tazSource id="-1136143571" weight="1.00"/>
        <tazSink id="-1136143571" weight="1.00"/>
    </taz>
    <taz id="taz_ski_corvatsch_sils_im_engadin" shape="27044.76,19446.76 27031.01,19437.15 27039.22,19424.17 27054.85,19432.93 27044.22,19447.39 27044.76,19446.76" color="red">
        <tazSource id="-25418244#0" weight="1.00"/>
        <tazSink id="-25418244#0" weight="1.00"/>
    </taz>
    <taz id="taz_ski_corvatsch_silvaplana" shape="30191.64,21960.43 30206.56,21966.97 30210.90,21953.54 30199.53,21946.44 30191.50,21960.79 30191.64,21960.43" color="red">
        <tazSource id="-1050853709#1" weight="1.00"/>
        <tazSink id="-1050853709#1" weight="1.00"/>
    </taz>
    <taz id="taz_ski_corviglia_piz_nair_st_moritz" shape="30972.30,26430.45 31060.49,26517.23 31119.28,26459.14 31049.99,26372.36 30970.20,26436.75 30972.30,26430.45" color="red">
        <tazSource id="1041492060#1" weight="1.00"/>
        <tazSink id="1041492060#1" weight="1.00"/>
        <tazSource id="-210208895" weight="1.00"/>
        <tazSink id="-210208895" weight="1.00"/>
        <tazSource id="-268146971#3" weight="1.00"/>
        <tazSink id="-268146971#3" weight="1.00"/>
        <tazSource id="152516783#1" weight="1.00"/>
        <tazSink id="152516783#1" weight="1.00"/>
        <tazSource id="740109140" weight="1.00"/>
        <tazSink id="740109140" weight="1.00"/>
    </taz>
</additional>
