<?xml version="1.0" encoding="UTF-8"?>

<!-- generated by Eclipse SUMO netedit 1.26.0
-->

<additional xmlns:xsi="http://www.w3.org/2001/XMLSchema-instance" xsi:noNamespaceSchemaLocation="http://sumo.dlr.de/xsd/additional_file.xsd">
    <!-- StoppingPlaces -->
    <busStop id="1.TA.92-20-E-j24-1.5.H.0" name="Silvaplana, Mandra" lane="187198083#0_0" startPos="4.98" endPos="19.98" friendlyPos="1"/>
    <busStop id="1.TA.92-20-E-j24-1.5.H.2" name="Silvaplana, Baselgia" lane="187198083#3_0" startPos="40.63" endPos="55.63" friendlyPos="1"/>
    <busStop id="1.TA.92-20-E-j24-1.5.H.3" name="Silvaplana, Plazza dal Güglia" lane="187198083#7_0" startPos="3.17" endPos="18.17" friendlyPos="1"/>
    <busStop id="1.TA.92-20-E-j24-1.5.H.4" name="Silvaplana, Plazza dal Mastrel" lane="18887954#0_0" startPos="0.00" endPos="13.24" friendlyPos="1"/>
    <busStop id="1.TA.92-20-E-j24-1.5.H.5" name="Silvaplana, Munteratsch" lane="185833040#1_0" startPos="8.03" endPos="23.03" friendlyPos="1"/>
    <busStop id="1.TA.92-4-Q-j24-1.1.R.12" name="St. Moritz Bad, Reithalle" lane="1113136564#0_0" startPos="0.00" endPos="9.87" friendlyPos="1"/>
    <busStop id="1.TA.92-4-Q-j24-1.1.R.13" name="St. Moritz, Bahnhof" lane="519913257#1_0" startPos="5.00" endPos="25.00" friendlyPos="1"/>
    <busStop id="1.TA.92-591-A-j24-1.1.H.0" name="Bergün/Bravuogn, staziun" lane="-22987122#1_0" startPos="0.00" endPos="15.00" friendlyPos="1"/>
    <busStop id="1.TA.92-591-A-j24-1.1.H.1" name="Latsch" lane="-22529831#3_0" startPos="3.98" endPos="18.98" friendlyPos="1"/>
    <busStop id="1.TA.92-591-A-j24-1.1.H.2" name="Stugl/Stuls, Dorf" lane="-903407330_0" startPos="73.10" endPos="88.10" friendlyPos="1"/>
    <busStop id="1.TA.92-614-A-j24-1.3.H.2" name="Celerina, Pradatsch Suot" lane="10272621#0_0" startPos="45.84" endPos="58.84" friendlyPos="1"/>
    <busStop id="1.TA.92-614-A-j24-1.3.H.4" name="Celerina, Centrum" lane="52823909#9_0" startPos="28.93" endPos="41.93" friendlyPos="1"/>
    <busStop id="1.TA.92-614-A-j24-1.3.H.5" name="Celerina, Talstation" lane="47634717_0" startPos="3.60" endPos="16.60" friendlyPos="1"/>
    <busStop id="1.TA.92-615-B-j24-1.3.H.2" name="Celerina, Nuschpigna" lane="10272560#0_0" startPos="54.51" endPos="67.51" friendlyPos="1"/>
    <busStop id="1.TA.92-615-B-j24-1.3.H.3" name="Celerina, Panorama" lane="10272560#1_0" startPos="60.56" endPos="73.56" friendlyPos="1"/>
    <busStop id="1.TA.92-615-B-j24-1.3.H.4" name="Celerina, Suot Crasta" lane="-10272958#10_0" startPos="7.87" endPos="20.87" friendlyPos="1"/>
    <busStop id="1.TA.92-615-B-j24-1.3.H.5" name="Celerina, Suot Mulin" lane="-10272958#0_0" startPos="40.19" endPos="53.19" friendlyPos="1"/>
    <busStop id="1.TA.92-615-B-j24-1.3.H.6" name="Celerina, Provizel" lane="-10272955#3_0" startPos="0.00" endPos="13.00" friendlyPos="1"/>
    <busStop id="1.TA.92-621-A-j24-1.1.H.0" name="Sils/Segl Maria, Föglias" lane="25418326#0_0" startPos="0.00" endPos="15.00" friendlyPos="1"/>
    <busStop id="1.TA.92-621-A-j24-1.1.H.11" name="Sils/Segl Maria, Maria" lane="256959702#1_0" startPos="0.00" endPos="15.00" friendlyPos="1"/>
    <busStop id="1.TA.92-621-A-j24-1.1.H.12" name="Sils/Segl Maria, Fainera" lane="150277078#2_0" startPos="63.80" endPos="78.80" friendlyPos="1"/>
    <busStop id="1.TA.92-621-A-j24-1.1.H.13" name="Sils/Segl Maria, Pas-chs" lane="256959700#0_0" startPos="0.00" endPos="15.00" friendlyPos="1"/>
    <busStop id="1.TA.92-621-A-j24-1.1.H.4" name="Sils/Segl Baselgia, Muttals" lane="973459742#0_0" startPos="0.00" endPos="14.92" friendlyPos="1"/>
    <busStop id="1.TA.92-621-A-j24-1.1.H.5" name="Sils/Segl Baselgia, Silserhof" lane="973459742#2_0" startPos="15.88" endPos="30.88" friendlyPos="1"/>
    <busStop id="1.TA.92-621-A-j24-1.1.H.6" name="Sils/Segl Maria, Alpenrose" lane="150335026#0_0" startPos="14.03" endPos="29.03" friendlyPos="1"/>
    <busStop id="1.TA.92-621-A-j24-1.1.H.7" name="Sils/Segl Maria, Chesa Fonio" lane="150335026#4_0" startPos="1.88" endPos="16.88" friendlyPos="1"/>
    <busStop id="1.TA.92-621-A-j24-1.1.H.8" name="Sils/Segl Maria,Chesa Cumünela" lane="1317098557_0" startPos="0.00" endPos="3.59" friendlyPos="1"/>
    <busStop id="1.TA.92-7-H-j24-1.1.H.0" name="S-chanf, Pradels" lane="-903746546#1_0" startPos="0.00" endPos="15.00" friendlyPos="1"/>
    <busStop id="1.TA.92-701-C-j24-1.1.H.0" name="Poschiavo, Stazione" lane="1026956934#1_0" startPos="0.00" endPos="15.00" friendlyPos="1"/>
    <busStop id="1.TA.92-701-C-j24-1.1.H.1" name="Poschiavo, Curtinell" lane="704197224#2_0" startPos="44.43" endPos="59.43" friendlyPos="1"/>
    <busStop id="1.TA.92-701-C-j24-1.1.H.10" name="Ospizio Bernina, Albergo" lane="169608570_0" startPos="44.90" endPos="59.90" friendlyPos="1"/>
    <busStop id="1.TA.92-701-C-j24-1.1.H.2" name="S. Carlo GR, Mulino Aino" lane="360201527#2_0" startPos="1.32" endPos="16.32" friendlyPos="1"/>
    <busStop id="1.TA.92-701-C-j24-1.1.H.3" name="S. Carlo GR, Centro" lane="-208773094_0" startPos="0.00" endPos="6.02" friendlyPos="1"/>
    <busStop id="1.TA.92-701-C-j24-1.1.H.4" name="S. Carlo GR, Val dal Teo" lane="169639670_0" startPos="0.00" endPos="15.00" friendlyPos="1"/>
    <busStop id="1.TA.92-701-C-j24-1.1.H.5" name="Pozzulasc, Fermata" lane="9704050#1_0" startPos="76.96" endPos="91.96" friendlyPos="1"/>
    <busStop id="1.TA.92-701-C-j24-1.1.H.6" name="Sfazù, Fermata" lane="40086142#1_0" startPos="39.11" endPos="54.11" friendlyPos="1"/>
    <busStop id="1.TA.92-701-C-j24-1.1.H.7" name="La Rösa" lane="40086147#10_0" startPos="31.41" endPos="46.41" friendlyPos="1"/>
    <busStop id="1.TA.92-701-C-j24-1.1.H.8" name="Li Mason, Fermata" lane="40086147#15_0" startPos="0.00" endPos="15.00" friendlyPos="1"/>
    <busStop id="1.TA.92-701-C-j24-1.1.H.9" name="La Motta, Dogana" lane="470932001_0" startPos="0.00" endPos="13.66" friendlyPos="1"/>
    <busStop id="1.TA.96-263-2-j24-1.11.H.0" name="Alvaschein, vischnanca" lane="124981129#0_0" startPos="0.00" endPos="15.00" friendlyPos="1"/>
    <busStop id="1.TA.96-265-5-j24-1.1.H.2" name="Cunter, Las Vals" lane="-56464399#1_0" startPos="85.94" endPos="98.94" friendlyPos="1"/>
    <busStop id="1.TA.96-265-5-j24-1.1.H.4" name="Savognin, Danilo" lane="-818486760#4_0" startPos="0.00" endPos="15.00" friendlyPos="1"/>
    <busStop id="1.TA.96-265-5-j24-1.1.H.5" name="Savognin, Sandeilas" lane="-1036095972#1_0" startPos="0.00" endPos="15.00" friendlyPos="1"/>
    <busStop id="1.TA.96-282-4-j24-1.8.H.1" name="Alvaschein, Solisbrücke" lane="47497927_0" startPos="0.00" endPos="13.00" friendlyPos="1"/>
    <busStop id="1.TA.96-282-4-j24-1.8.H.2" name="Vaz/Obervaz, Solis" lane="967072415#1_0" startPos="58.17" endPos="73.17" friendlyPos="1"/>
    <busStop id="1.TA.96-282-4-j24-1.8.H.3" name="Mutten, Unterdorf" lane="806126474_0" startPos="0.00" endPos="15.00" friendlyPos="1"/>
    <busStop id="1.TA.96-282-4-j24-1.8.H.4" name="Mutten, Dorfmitte" lane="806126476#1_0" startPos="0.00" endPos="15.00" friendlyPos="1"/>
    <busStop id="1.TA.96-283-6-j24-1.1.H.10" name="Avers, Abzw. Valle di Lei" lane="38694686#1_0" startPos="765.15" endPos="780.15" friendlyPos="1"/>
    <busStop id="1.TA.96-283-6-j24-1.1.H.11" name="Avers, Campsut" lane="38694690#1_0" startPos="74.56" endPos="89.56" friendlyPos="1"/>
    <busStop id="1.TA.96-283-6-j24-1.1.H.12" name="Avers, Cröt" lane="38694690#3_0" startPos="591.15" endPos="606.15" friendlyPos="1"/>
    <busStop id="1.TA.96-283-6-j24-1.1.H.13" name="Avers, Lezibrücke" lane="916850589#0_0" startPos="185.43" endPos="200.43" friendlyPos="1"/>
    <busStop id="1.TA.96-283-6-j24-1.1.H.14" name="Avers, Cresta" lane="961236599#1_0" startPos="247.83" endPos="262.83" friendlyPos="1"/>
    <busStop id="1.TA.96-283-6-j24-1.1.H.15" name="Avers, Pürt" lane="320560205#0_0" startPos="69.41" endPos="84.41" friendlyPos="1"/>
    <busStop id="1.TA.96-283-6-j24-1.1.H.16" name="Avers, Am Bach" lane="320560205#4_0" startPos="73.89" endPos="88.89" friendlyPos="1"/>
    <busStop id="1.TA.96-283-6-j24-1.1.H.17" name="Avers, Juppa" lane="304719789#2_0" startPos="0.00" endPos="15.00" friendlyPos="1"/>
    <busStop id="1.TA.96-283-6-j24-1.1.H.18" name="Avers, Rufana" lane="67386045#2_0" startPos="50.62" endPos="65.62" friendlyPos="1"/>
    <busStop id="1.TA.96-283-6-j24-1.1.H.19" name="Avers, Podestats Haus" lane="67386045#5_0" startPos="147.57" endPos="162.57" friendlyPos="1"/>
    <busStop id="1.TA.96-283-6-j24-1.1.H.20" name="Avers, Juf" lane="241041896_0" startPos="55.40" endPos="70.40" friendlyPos="1"/>
    <busStop id="1.TA.96-283-6-j24-1.1.H.9" name="Ferrera, Abzw. Val digl Uors" lane="1089887708#0_0" startPos="127.63" endPos="142.63" friendlyPos="1"/>
    <busStop id="1.TA.96-290-3-j24-1.1.H.0" name="Soglio, Villaggio" lane="62065386_0" startPos="0.00" endPos="15.00" friendlyPos="1"/>
    <busStop id="1.TA.96-290-3-j24-1.1.H.1" name="Soglio, Plazza" lane="370855281#1_0" startPos="155.46" endPos="170.46" friendlyPos="1"/>
    <busStop id="1.TA.96-290-3-j24-1.1.H.2" name="Promontogno, Ospedale Flin" lane="370855281#6_0" startPos="444.42" endPos="459.42" friendlyPos="1"/>
    <busStop id="1.TA.96-290-3-j24-1.1.H.3" name="Spino" lane="429497063#1_0" startPos="0.00" endPos="13.00" friendlyPos="1"/>
    <busStop id="1.TA.96-290-3-j24-1.1.H.4" name="Promontogno, Posta" lane="120829159_0" startPos="5.00" endPos="15.00" friendlyPos="1"/>
    <busStop id="1.TA.96-301-2-j24-1.1.H.1" name="Prazet" lane="140549298#5_0" startPos="14.82" endPos="27.82" friendlyPos="1"/>
    <busStop id="1.TA.96-301-2-j24-1.1.H.2" name="Brail" lane="1277640407#1_0" startPos="0.00" endPos="5.33" friendlyPos="1"/>
    <busStop id="10.TA.92-20-E-j24-1.1.H.10" name="Surlej, Cristins" lane="25418590#1_0" startPos="0.00" endPos="4.00" friendlyPos="1"/>
    <busStop id="10.TA.92-20-E-j24-1.1.H.8" name="Surlej, Islas" lane="-187633169#3_0" startPos="0.00" endPos="15.00" friendlyPos="1"/>
    <busStop id="10.TA.92-591-A-j24-1.3.R.0" name="Stugl/Stuls, Dorf" lane="945265859#5_0" startPos="40.69" endPos="55.69" friendlyPos="1"/>
    <busStop id="10.TA.92-591-A-j24-1.3.R.1" name="Latsch" lane="22529831#3_0" startPos="122.41" endPos="137.41" friendlyPos="1"/>
    <busStop id="10.TA.92-591-A-j24-1.3.R.2" name="Bergün/Bravuogn, staziun" lane="22987122#0_0" startPos="25.20" endPos="40.20" friendlyPos="1"/>
    <busStop id="10.TA.92-591-A-j24-1.3.R.3" name="Bergün/Bravuogn, posta" lane="127417609_0" startPos="0.00" endPos="10.65" friendlyPos="1"/>
    <busStop id="10.TA.92-614-A-j24-1.4.R.0" name="Celerina, Talstation" lane="22719589#6_0" startPos="0.00" endPos="13.00" friendlyPos="1"/>
    <busStop id="10.TA.96-263-1-j24-1.4.H.19" name="Bivio, posta" lane="-897592616_0" startPos="0.00" endPos="8.32" friendlyPos="1"/>
    <busStop id="10.TA.96-263-2-j24-1.4.H.1" name="Alvaschein, Gipsmühle" lane="124981129#4_0" startPos="592.11" endPos="607.11" friendlyPos="1"/>
    <busStop id="10.TA.96-263-3-j24-1.4.H.10" name="Surava, Dorf" lane="591634929#0_0" startPos="0.00" endPos="15.00" friendlyPos="1"/>
    <busStop id="10.TA.96-263-3-j24-1.4.H.11" name="Surava, Abzw. Bahnhof" lane="75390607#1_0" startPos="179.39" endPos="194.39" friendlyPos="1"/>
    <busStop id="10.TA.96-263-3-j24-1.4.H.12" name="Surava, Pro Quarta" lane="374158117#0_0" startPos="84.72" endPos="99.72" friendlyPos="1"/>
    <busStop id="10.TA.96-263-3-j24-1.4.H.13" name="Alvaneu Dorf, Crappa Naira" lane="-314389278#0_0" startPos="0.00" endPos="15.00" friendlyPos="1"/>
    <busStop id="10.TA.96-263-3-j24-1.4.H.14" name="Alvaneu Dorf, Dorfplatz" lane="599591080_0" startPos="1.44" endPos="16.44" friendlyPos="1"/>
    <busStop id="10.TA.96-263-3-j24-1.4.H.17" name="Alvaneu, Bahnhof" lane="-30890321_0" startPos="15.00" endPos="30.00" friendlyPos="1"/>
    <busStop id="10.TA.96-263-3-j24-1.4.H.18" name="Alvaneu Bad, Dorfplatz" lane="-591644951#2_0" startPos="0.00" endPos="15.00" friendlyPos="1"/>
    <busStop id="10.TA.96-265-5-j24-1.5.H.0" name="Savognin, posta" lane="-804905485_0" startPos="13.09" endPos="28.09" friendlyPos="1"/>
    <busStop id="10.TA.96-265-5-j24-1.5.H.1" name="Savognin, Bursa" lane="56464389#2_0" startPos="0.00" endPos="15.00" friendlyPos="1"/>
    <busStop id="10.TA.96-265-5-j24-1.5.H.2" name="Savognin, Sur Ual" lane="56464389#6_0" startPos="72.09" endPos="87.09" friendlyPos="1"/>
    <busStop id="10.TA.96-265-5-j24-1.5.H.3" name="Savognin, Canetel" lane="39200972#0_0" startPos="0.00" endPos="15.00" friendlyPos="1"/>
    <busStop id="10.TA.96-265-5-j24-1.5.H.5" name="Savognin, Tect" lane="39200972#4_0" startPos="9.41" endPos="24.41" friendlyPos="1"/>
    <busStop id="10.TA.96-265-5-j24-1.5.H.6" name="Savognin, Tgampi" lane="1313544739#2_0" startPos="26.71" endPos="41.71" friendlyPos="1"/>
    <busStop id="10.TA.96-266-0-j24-1.18.H.11" name="Schmitten (Albula), Chappali" lane="591650482_0" startPos="25.38" endPos="40.38" friendlyPos="1"/>
    <busStop id="10.TA.96-266-0-j24-1.18.H.12" name="Schmitten (Albula), Dorf" lane="690554953#2_0" startPos="13.63" endPos="28.63" friendlyPos="1"/>
    <busStop id="10.TA.96-266-0-j24-1.18.H.13" name="Schmitten (Albula), Innerdorf" lane="-146590566_0" startPos="0.00" endPos="15.00" friendlyPos="1"/>
    <busStop id="10.TA.96-266-0-j24-1.18.H.7" name="Brienz/Brinzauls GR, Dorf" lane="591634920_0" startPos="0.00" endPos="3.69" friendlyPos="1"/>
    <busStop id="10.TA.96-266-0-j24-1.18.H.8" name="Brienz/Brinzauls GR, Belfort" lane="30153053#1_0" startPos="0.00" endPos="15.00" friendlyPos="1"/>
    <busStop id="10.TA.96-266-0-j24-1.18.H.9" name="Alvaneu Dorf, Crappa Naira" lane="30153053#4_0" startPos="416.48" endPos="431.48" friendlyPos="1"/>
    <busStop id="10.TA.96-282-4-j24-1.6.R.0" name="Mutten, Oberdorf" lane="-806126477#0_0" startPos="112.40" endPos="127.40" friendlyPos="1"/>
    <busStop id="10.TA.96-282-4-j24-1.6.R.2" name="Mutten, Unterdorf" lane="-806126476#0_0" startPos="147.99" endPos="162.99" friendlyPos="1"/>
    <busStop id="10.TA.96-282-4-j24-1.6.R.3" name="Vaz/Obervaz, Solis" lane="-967072415#1_0" startPos="21.21" endPos="36.21" friendlyPos="1"/>
    <busStop id="10.TA.96-282-4-j24-1.6.R.4" name="Alvaschein, Solisbrücke" lane="-47497927_0" startPos="338.70" endPos="353.70" friendlyPos="1"/>
    <busStop id="100.TA.96-260-1-j24-1.37.H.1" name="Lantsch/Lenz, Biathlon Arena" lane="-690751814#1_0" startPos="7.34" endPos="20.34" friendlyPos="1"/>
    <busStop id="100.TA.96-260-1-j24-1.37.H.10" name="Cunter, Burvagn" lane="-246065192#0_0" startPos="218.72" endPos="233.72" friendlyPos="1"/>
    <busStop id="100.TA.96-260-1-j24-1.37.H.11" name="Cunter, Dafora" lane="-690955701#1_0" startPos="3.95" endPos="18.95" friendlyPos="1"/>
    <busStop id="100.TA.96-260-1-j24-1.37.H.12" name="Cunter, vischnanca" lane="-854030017_0" startPos="100.01" endPos="115.01" friendlyPos="1"/>
    <busStop id="100.TA.96-260-1-j24-1.37.H.13" name="Savognin, Cresta" lane="-200933442#3_0" startPos="22.27" endPos="37.27" friendlyPos="1"/>
    <busStop id="100.TA.96-260-1-j24-1.37.H.14" name="Savognin, posta" lane="897592622#0_0" startPos="8.59" endPos="23.59" friendlyPos="1"/>
    <busStop id="100.TA.96-260-1-j24-1.37.H.15" name="Savognin, pendicularas/Bahnen" lane="-231854090_0" startPos="102.64" endPos="117.64" friendlyPos="1"/>
    <busStop id="100.TA.96-260-1-j24-1.37.H.2" name="Lantsch/Lenz, Barbatschauns" lane="-897592624#7_0" startPos="35.24" endPos="50.24" friendlyPos="1"/>
    <busStop id="100.TA.96-260-1-j24-1.37.H.3" name="Lantsch/Lenz, Vischnanca" lane="124064405_0" startPos="0.00" endPos="11.21" friendlyPos="1"/>
    <busStop id="100.TA.96-260-1-j24-1.37.H.4" name="Lantsch/Lenz, Sudem Vischnanca" lane="-29377506#0_0" startPos="34.92" endPos="49.92" friendlyPos="1"/>
    <busStop id="100.TA.96-260-1-j24-1.37.H.5" name="Lantsch/Lenz, Sozas" lane="77047613#1_0" startPos="602.19" endPos="617.19" friendlyPos="1"/>
    <busStop id="100.TA.96-260-1-j24-1.37.H.6" name="Brienz/Brinzauls GR, Vazerol" lane="645430773_0" startPos="93.19" endPos="108.19" friendlyPos="1"/>
    <busStop id="100.TA.96-260-1-j24-1.37.H.7" name="Brienz/Brinzauls GR, Spisagger" lane="645430765#1_0" startPos="397.61" endPos="410.61" friendlyPos="1"/>
    <busStop id="100.TA.96-260-1-j24-1.37.H.8" name="Tiefencastel, staziun" lane="-596221490_0" startPos="10.85" endPos="25.85" friendlyPos="1"/>
    <busStop id="100.TA.96-260-1-j24-1.37.H.9" name="Tiefencastel, vischnanca" lane="69158836_0" startPos="5.10" endPos="20.10" friendlyPos="1"/>
    <busStop id="1000.TA.92-9-H-j24-1.4.R.0" name="St. Moritz Bad, Youth Hostel" lane="-96461180#5_0" startPos="0.00" endPos="15.00" friendlyPos="1"/>
    <busStop id="101.TA.92-1-N-j24-1.1.H.0" name="St. Moritz, Bahnhof" lane="519913261#1_0" startPos="5.00" endPos="25.00" friendlyPos="1"/>
    <busStop id="101.TA.92-1-N-j24-1.1.H.1" name="St. Moritz, Klinik Gut" lane="819942944#3_0" startPos="0.00" endPos="15.00" friendlyPos="1"/>
    <busStop id="101.TA.92-1-N-j24-1.1.H.3" name="St. Moritz, Caspar Badrutt" lane="-152517443#1_0" startPos="75.95" endPos="90.95" friendlyPos="1"/>
    <busStop id="101.TA.92-1-N-j24-1.1.H.4" name="St. Moritz Bad, Via Aruons" lane="-152517715#3_0" startPos="181.69" endPos="196.69" friendlyPos="1"/>
    <busStop id="101.TA.92-1-N-j24-1.1.H.5" name="St. Moritz Bad, Via Salet" lane="-25303487#4_0" startPos="10.28" endPos="25.28" friendlyPos="1"/>
    <busStop id="101.TA.92-1-N-j24-1.1.H.6" name="St. Moritz Bad, Kath. Kirche" lane="30957915_0" startPos="57.33" endPos="72.33" friendlyPos="1"/>
    <busStop id="101.TA.92-1-N-j24-1.1.H.7" name="St. Moritz Bad, Sonne" lane="-30050433#2_0" startPos="31.19" endPos="46.19" friendlyPos="1"/>
    <busStop id="101.TA.92-1-N-j24-1.1.H.8" name="St. Moritz Bad, Hallenbad" lane="170940321#0_0" startPos="36.36" endPos="51.36" friendlyPos="1"/>
    <busStop id="101.TA.92-1-N-j24-1.1.H.9" name="St. Moritz Bad, Via San Gian" lane="-170952324#1_0" startPos="11.01" endPos="26.01" friendlyPos="1"/>
    <busStop id="1012.TA.92-2-L-j24-1.20.H.0" name="Bernina, Lagalbbahn" lane="-894576899#0_0" startPos="0.00" endPos="0.20" friendlyPos="1"/>
    <busStop id="1012.TA.92-2-L-j24-1.20.H.1" name="Bernina Diavolezza, Bahnhof" lane="1069366721_0" startPos="168.39" endPos="183.39" friendlyPos="1"/>
    <busStop id="1012.TA.92-2-L-j24-1.20.H.13" name="Celerina, Olympia Bob Run" lane="-152336263#1_0" startPos="150.78" endPos="163.78" friendlyPos="1"/>
    <busStop id="1012.TA.92-2-L-j24-1.20.H.17" name="St. Moritz, Segantini Museum" lane="1115020158_0" startPos="65.83" endPos="80.83" friendlyPos="1"/>
    <busStop id="1012.TA.92-2-L-j24-1.20.H.18" name="St. Moritz, Somplaz" lane="25303488#4_0" startPos="30.55" endPos="45.55" friendlyPos="1"/>
    <busStop id="1012.TA.92-2-L-j24-1.20.H.2" name="Bernina Suot, Bahnhof" lane="470950955#1_0" startPos="0.00" endPos="4.41" friendlyPos="1"/>
    <busStop id="1012.TA.92-2-L-j24-1.20.H.3" name="Morteratsch, Abzweigung" lane="25418830#0_0" startPos="46.73" endPos="61.73" friendlyPos="1"/>
    <busStop id="1012.TA.92-2-L-j24-1.20.H.4" name="Pontresina, Palü" lane="268784315#3_0" startPos="109.99" endPos="124.99" friendlyPos="1"/>
    <busStop id="1014.TA.92-1-N-j24-1.12.H.0" name="Samedan, Bahnhof" lane="173044383_0" startPos="1.39" endPos="16.39" friendlyPos="1"/>
    <busStop id="1014.TA.92-1-N-j24-1.12.H.1" name="Samedan, Post" lane="914212716#1_0" startPos="0.00" endPos="9.44" friendlyPos="1"/>
    <busStop id="1014.TA.92-1-N-j24-1.12.H.14" name="St. Moritz, Bahnhof" lane="519913263#1_0" startPos="5.00" endPos="25.00" friendlyPos="1"/>
    <busStop id="1014.TA.92-1-N-j24-1.12.H.25" name="St. Moritz Bad, Campingplatz" lane="-30957907_0" startPos="58.53" endPos="73.53" friendlyPos="1"/>
    <busStop id="1014.TA.92-1-N-j24-1.12.H.26" name="Silvaplana, Rundella Curtins" lane="1086005529_0" startPos="94.72" endPos="109.72" friendlyPos="1"/>
    <busStop id="1014.TA.92-1-N-j24-1.12.H.27" name="Surlej, Punt" lane="25418588#1_0" startPos="0.00" endPos="15.00" friendlyPos="1"/>
    <busStop id="1014.TA.92-1-N-j24-1.12.H.28" name="Surlej, Foppas" lane="30957916#1_0" startPos="22.25" endPos="37.25" friendlyPos="1"/>
    <busStop id="1014.TA.92-1-N-j24-1.12.H.29" name="Surlej, Corvatschbahn" lane="1050853710_0" startPos="18.91" endPos="33.91" friendlyPos="1"/>
    <busStop id="1014.TA.92-1-N-j24-1.12.H.3" name="Samedan, Central" lane="914073309#0_0" startPos="0.00" endPos="12.66" friendlyPos="1"/>
    <busStop id="1014.TA.92-1-N-j24-1.12.H.4" name="Samedan, Golf" lane="25418890#1_0" startPos="0.00" endPos="11.36" friendlyPos="1"/>
    <busStop id="1014.TA.92-1-N-j24-1.12.H.6" name="Punt Muragl, Talstation" lane="19724333#1_0" startPos="10.51" endPos="25.51" friendlyPos="1"/>
    <busStop id="1049.TA.92-2-L-j24-1.22.R.4" name="St. Moritz, Somplaz" lane="-25303488#4_0" startPos="177.05" endPos="192.05" friendlyPos="1"/>
    <busStop id="1049.TA.92-2-L-j24-1.22.R.5" name="St. Moritz, Segantini Museum" lane="-1115020158_0" startPos="8.52" endPos="23.52" friendlyPos="1"/>
    <busStop id="1084.TA.92-2-L-j24-1.24.R.0" name="Sils/Segl Baselgia,San Lurench" lane="56240189#4_0" startPos="16.24" endPos="31.24" friendlyPos="1"/>
    <busStop id="11.TA.96-263-3-j24-1.6.H.19" name="Alvaneu Bad, Badezentrum" lane="472364554_0" startPos="163.83" endPos="176.83" friendlyPos="1"/>
    <busStop id="11.TA.96-263-3-j24-1.6.H.20" name="Alvaneu Bad, Solas" lane="472364555#1_0" startPos="0.00" endPos="15.00" friendlyPos="1"/>
    <busStop id="11.TA.96-263-3-j24-1.6.H.21" name="Filisur, Valleglia" lane="1259390281#2_0" startPos="0.00" endPos="13.00" friendlyPos="1"/>
    <busStop id="11.TA.96-263-3-j24-1.6.H.22" name="Filisur, Dorf" lane="-59275400#0_0" startPos="6.55" endPos="19.55" friendlyPos="1"/>
    <busStop id="11.TA.96-263-3-j24-1.6.H.23" name="Filisur, Schöntal" lane="591644944#0_0" startPos="8.89" endPos="23.89" friendlyPos="1"/>
    <busStop id="11.TA.96-263-3-j24-1.6.H.24" name="Filisur, Bahnhof" lane="690318937_0" startPos="3.85" endPos="18.85" friendlyPos="1"/>
    <busStop id="11.TA.96-301-2-j24-1.3.H.4" name="Cinuos-chel, Suot il Chaunt" lane="894940511#0_0" startPos="0.00" endPos="15.00" friendlyPos="1"/>
    <busStop id="112.TA.92-2-L-j24-1.3.H.0" name="Pontresina, Bahnhof" lane="-61427874#2_0" startPos="0.00" endPos="14.60" friendlyPos="1"/>
    <busStop id="1174.TA.92-2-L-j24-1.27.R.14" name="Pontresina, Rondo" lane="61427866#1_0" startPos="2.20" endPos="17.20" friendlyPos="1"/>
    <busStop id="119.TA.92-10-J-j24-1.3.H.0" name="S-chanf, Chesa cumünela" lane="-1070048517#0_0" startPos="0.00" endPos="6.93" friendlyPos="1"/>
    <busStop id="119.TA.92-10-J-j24-1.3.H.1" name="S-chanf, Somvih" lane="-28985863_0" startPos="83.95" endPos="98.95" friendlyPos="1"/>
    <busStop id="119.TA.92-10-J-j24-1.3.H.10" name="Bever, Bahnhof" lane="-819578576#2_0" startPos="0.83" endPos="15.83" friendlyPos="1"/>
    <busStop id="119.TA.92-10-J-j24-1.3.H.11" name="Samedan, Spital" lane="-268026212#0_0" startPos="22.78" endPos="37.78" friendlyPos="1"/>
    <busStop id="119.TA.92-10-J-j24-1.3.H.2" name="Zuoz, Aguêl" lane="-1070048512_0" startPos="96.53" endPos="111.53" friendlyPos="1"/>
    <busStop id="119.TA.92-10-J-j24-1.3.H.3" name="Zuoz, staziun" lane="-54430667#5_0" startPos="7.54" endPos="22.54" friendlyPos="1"/>
    <busStop id="119.TA.92-10-J-j24-1.3.H.4" name="Zuoz, Chaunt da Crusch" lane="-300918337#2_0" startPos="154.53" endPos="169.53" friendlyPos="1"/>
    <busStop id="119.TA.92-10-J-j24-1.3.H.5" name="Madulain, vih" lane="-209542564#3_0" startPos="44.12" endPos="59.12" friendlyPos="1"/>
    <busStop id="119.TA.92-10-J-j24-1.3.H.6" name="Chamues-ch, plaz" lane="894905821_0" startPos="0.00" endPos="1.67" friendlyPos="1"/>
    <busStop id="119.TA.92-10-J-j24-1.3.H.7" name="Chamues-ch, Müsella" lane="-25879186#5_0" startPos="1.74" endPos="16.74" friendlyPos="1"/>
    <busStop id="119.TA.92-10-J-j24-1.3.H.8" name="La Punt, Krone" lane="-25879170_0" startPos="0.00" endPos="15.00" friendlyPos="1"/>
    <busStop id="119.TA.92-10-J-j24-1.3.H.9" name="Bever, Dorfzentrum" lane="-924120656#0_0" startPos="22.84" endPos="37.84" friendlyPos="1"/>
    <busStop id="12.TA.96-262-1-j24-1.35.H.0" name="Parsonz, vischnanca" lane="690955706_0" startPos="118.57" endPos="133.57" friendlyPos="1"/>
    <busStop id="12.TA.96-262-1-j24-1.35.H.1" name="Riom, vischnanca" lane="200343642_0" startPos="0.00" endPos="1.79" friendlyPos="1"/>
    <busStop id="12.TA.96-262-1-j24-1.35.H.2" name="Riom, Casti" lane="690955704#1_0" startPos="0.36" endPos="15.36" friendlyPos="1"/>
    <busStop id="12.TA.96-262-1-j24-1.35.H.3" name="Salouf, vischnanca" lane="853527378_0" startPos="0.00" endPos="15.00" friendlyPos="1"/>
    <busStop id="12.TA.96-262-1-j24-1.35.H.6" name="Riom, spartaveias" lane="35833439#0_0" startPos="0.00" endPos="15.00" friendlyPos="1"/>
    <busStop id="12.TA.96-262-1-j24-1.35.H.7" name="Cunter, Mulegn" lane="-854030010_0" startPos="0.00" endPos="0.20" friendlyPos="1"/>
    <busStop id="12.TA.96-265-5-j24-1.6.H.3" name="Savognin, Sot Spondas" lane="56472771#2_0" startPos="100.43" endPos="115.43" friendlyPos="1"/>
    <busStop id="12.TA.96-265-5-j24-1.6.H.4" name="Savognin, Soras" lane="-107244417_0" startPos="0.00" endPos="13.41" friendlyPos="1"/>
    <busStop id="12.TA.96-282-4-j24-1.7.R.0" name="Obermutten, Dorf" lane="-83056282#1_0" startPos="0.00" endPos="15.00" friendlyPos="1"/>
    <busStop id="12.TA.96-282-4-j24-1.7.R.1" name="Mutten, Stafel" lane="-537206171#4_0" startPos="68.14" endPos="83.14" friendlyPos="1"/>
    <busStop id="12.TA.96-282-4-j24-1.7.R.2" name="Mutten, Oberdorf" lane="-537206180#0_0" startPos="0.00" endPos="15.00" friendlyPos="1"/>
    <busStop id="13.TA.96-283-6-j24-1.2.R.0" name="Avers, Juf" lane="-655899989_0" startPos="0.00" endPos="15.00" friendlyPos="1"/>
    <busStop id="13.TA.96-283-6-j24-1.2.R.1" name="Avers, Podestats Haus" lane="-67386045#5_0" startPos="465.03" endPos="480.03" friendlyPos="1"/>
    <busStop id="13.TA.96-283-6-j24-1.2.R.10" name="Avers, Abzw. Valle di Lei" lane="-38694686#1_0" startPos="0.00" endPos="15.00" friendlyPos="1"/>
    <busStop id="13.TA.96-283-6-j24-1.2.R.11" name="Ferrera, Abzw. Val digl Uors" lane="-1089887708#0_0" startPos="0.00" endPos="15.00" friendlyPos="1"/>
    <busStop id="13.TA.96-283-6-j24-1.2.R.2" name="Avers, Rufana" lane="-67386045#2_0" startPos="0.00" endPos="15.00" friendlyPos="1"/>
    <busStop id="13.TA.96-283-6-j24-1.2.R.3" name="Avers, Juppa" lane="-304719789#1_0" startPos="0.00" endPos="25.00" friendlyPos="1"/>
    <busStop id="13.TA.96-283-6-j24-1.2.R.4" name="Avers, Am Bach" lane="-320560205#4_0" startPos="0.00" endPos="15.00" friendlyPos="1"/>
    <busStop id="13.TA.96-283-6-j24-1.2.R.5" name="Avers, Pürt" lane="-320560205#0_0" startPos="159.64" endPos="174.64" friendlyPos="1"/>
    <busStop id="13.TA.96-283-6-j24-1.2.R.6" name="Avers, Cresta" lane="-961236599#1_0" startPos="35.95" endPos="50.95" friendlyPos="1"/>
    <busStop id="13.TA.96-283-6-j24-1.2.R.7" name="Avers, Lezibrücke" lane="-916850589#0_0" startPos="12.28" endPos="27.28" friendlyPos="1"/>
    <busStop id="13.TA.96-283-6-j24-1.2.R.8" name="Avers, Cröt" lane="-38694690#3_0" startPos="0.00" endPos="15.00" friendlyPos="1"/>
    <busStop id="13.TA.96-283-6-j24-1.2.R.9" name="Avers, Campsut" lane="-38694690#1_0" startPos="49.82" endPos="64.82" friendlyPos="1"/>
    <busStop id="14.TA.96-262-1-j24-1.36.H.0" name="Salouf, scola" lane="690960932#1_0" startPos="0.00" endPos="15.00" friendlyPos="1"/>
    <busStop id="14.TA.96-263-2-j24-1.5.H.4" name="Mon, avant porta" lane="170975839#1_0" startPos="6.39" endPos="21.39" friendlyPos="1"/>
    <busStop id="14.TA.96-292-1-j24-1.7.H.13" name="S. Carlo GR, Centro" lane="208773094_0" startPos="0.00" endPos="9.54" friendlyPos="1"/>
    <busStop id="14.TA.96-292-1-j24-1.7.H.14" name="S. Carlo GR, Raviscé" lane="-169639667_0" startPos="191.56" endPos="206.56" friendlyPos="1"/>
    <busStop id="14.TA.96-292-1-j24-1.7.H.15" name="S. Carlo GR, Angeli Custodi" lane="-732209054#0_0" startPos="0.00" endPos="15.00" friendlyPos="1"/>
    <busStop id="14.TA.96-292-1-j24-1.7.H.16" name="S. Carlo GR, Permunt" lane="-31683371#0_0" startPos="284.65" endPos="299.65" friendlyPos="1"/>
    <busStop id="14.TA.96-292-1-j24-1.7.H.17" name="S. Carlo GR, Percosta" lane="-169639668#0_0" startPos="0.00" endPos="12.76" friendlyPos="1"/>
    <busStop id="159.TA.96-260-1-j24-1.11.H.14" name="Savognin, posta" lane="-897592622#0_0" startPos="4.33" endPos="19.33" friendlyPos="1"/>
    <busStop id="159.TA.96-260-1-j24-1.11.H.15" name="Tinizong, Cadras" lane="-1219873853_0" startPos="74.59" endPos="89.59" friendlyPos="1"/>
    <busStop id="159.TA.96-260-1-j24-1.11.H.16" name="Tinizong, Tga Communala" lane="-851211805#0_0" startPos="13.84" endPos="28.84" friendlyPos="1"/>
    <busStop id="159.TA.96-260-1-j24-1.11.H.17" name="Tinizong, Curtinatsch" lane="-1264442841#1_0" startPos="59.32" endPos="74.32" friendlyPos="1"/>
    <busStop id="159.TA.96-260-1-j24-1.11.H.18" name="Tinizong, Vardaval" lane="-1411974373#0_0" startPos="114.77" endPos="129.77" friendlyPos="1"/>
    <busStop id="159.TA.96-260-1-j24-1.11.H.19" name="Rona, vischnanca" lane="-216377524#1_0" startPos="0.00" endPos="4.97" friendlyPos="1"/>
    <busStop id="159.TA.96-260-1-j24-1.11.H.20" name="Mulegns, vischnanca" lane="-1435042405_0" startPos="0.00" endPos="7.42" friendlyPos="1"/>
    <busStop id="159.TA.96-260-1-j24-1.11.H.21" name="Sur, plazza dalla posta" lane="897592618_0" startPos="0.00" endPos="15.00" friendlyPos="1"/>
    <busStop id="159.TA.96-260-1-j24-1.11.H.22" name="Marmorera, Scalotta" lane="-170975837#3_0" startPos="130.17" endPos="145.17" friendlyPos="1"/>
    <busStop id="159.TA.96-260-1-j24-1.11.H.23" name="Marmorera, rampar/Staudamm" lane="-170975836#0_0" startPos="16.25" endPos="31.25" friendlyPos="1"/>
    <busStop id="159.TA.96-260-1-j24-1.11.H.24" name="Marmorera, vischnanca" lane="-915957807#1_0" startPos="2.48" endPos="17.48" friendlyPos="1"/>