<routes>
    <vehicle id="101.TA.92-1-N-j24-1.1.H" route="101.TA.92-1-N-j24-1.1.H" type="bus" depart="72300" line="101.TA.92-1-N-j24-1.1.H">
        <param key="gtfs.route_name" value="1"/>
        <param key="gtfs.trip_headsign" value="St. Moritz Bad, Via San Gian"/>
    </vehicle>
    <vehicle id="1014.TA.92-1-N-j24-1.12.H" route="1014.TA.92-1-N-j24-1.12.H" type="bus" depart="39600" line="1014.TA.92-1-N-j24-1.12.H">
        <param key="gtfs.route_name" value="1"/>
        <param key="gtfs.trip_headsign" value="Surlej, Corvatschbahn"/>
    </vehicle>
    <vehicle id="1034.TA.92-1-N-j24-1.12.H" route="1014.TA.92-1-N-j24-1.12.H" type="bus" depart="43200" line="1014.TA.92-1-N-j24-1.12.H">
        <param key="gtfs.route_name" value="1"/>
        <param key="gtfs.trip_headsign" value="Surlej, Corvatschbahn"/>
    </vehicle>
    <vehicle id="1037.TA.92-1-N-j24-1.12.H" route="1014.TA.92-1-N-j24-1.12.H" type="bus" depart="54000" line="1014.TA.92-1-N-j24-1.12.H">
        <param key="gtfs.route_name" value="1"/>
        <param key="gtfs.trip_headsign" value="Surlej, Corvatschbahn"/>
    </vehicle>
    <vehicle id="1070.TA.92-1-N-j24-1.12.H" route="1014.TA.92-1-N-j24-1.12.H" type="bus" depart="57600" line="1014.TA.92-1-N-j24-1.12.H">
        <param key="gtfs.route_name" value="1"/>
        <param key="gtfs.trip_headsign" value="Surlej, Corvatschbahn"/>
    </vehicle>
    <vehicle id="1159.TA.92-1-N-j24-1.12.H" route="1014.TA.92-1-N-j24-1.12.H" type="bus" depart="61200" line="1014.TA.92-1-N-j24-1.12.H">
        <param key="gtfs.route_name" value="1"/>
        <param key="gtfs.trip_headsign" value="Surlej, Corvatschbahn"/>
    </vehicle>
    <vehicle id="1173.TA.92-1-N-j24-1.12.H" route="1014.TA.92-1-N-j24-1.12.H" type="bus" depart="48600" line="1014.TA.92-1-N-j24-1.12.H">
        <param key="gtfs.route_name" value="1"/>
        <param key="gtfs.trip_headsign" value="Surlej, Corvatschbahn"/>
    </vehicle>
    <vehicle id="1195.TA.92-1-N-j24-1.12.H" route="1014.TA.92-1-N-j24-1.12.H" type="bus" depart="30600" line="1014.TA.92-1-N-j24-1.12.H">
        <param key="gtfs.route_name" value="1"/>
        <param key="gtfs.trip_headsign" value="Surlej, Corvatschbahn"/>
    </vehicle>
    <vehicle id="1202.TA.92-1-N-j24-1.12.H" route="1014.TA.92-1-N-j24-1.12.H" type="bus" depart="36000" line="1014.TA.92-1-N-j24-1.12.H">
        <param key="gtfs.route_name" value="1"/>
        <param key="gtfs.trip_headsign" value="Surlej, Corvatschbahn"/>
    </vehicle>
    <vehicle id="1217.TA.92-1-N-j24-1.12.H" route="1014.TA.92-1-N-j24-1.12.H" type="bus" depart="41400" line="1014.TA.92-1-N-j24-1.12.H">
        <param key="gtfs.route_name" value="1"/>
        <param key="gtfs.trip_headsign" value="Surlej, Corvatschbahn"/>
    </vehicle>
    <vehicle id="123.TA.92-1-N-j24-1.1.H" route="101.TA.92-1-N-j24-1.1.H" type="bus" depart="27300" line="101.TA.92-1-N-j24-1.1.H">
        <param key="gtfs.route_name" value="1"/>
        <param key="gtfs.trip_headsign" value="St. Moritz Bad, Via San Gian"/>
    </vehicle>
    <vehicle id="1263.TA.92-1-N-j24-1.12.H" route="1014.TA.92-1-N-j24-1.12.H" type="bus" depart="46800" line="1014.TA.92-1-N-j24-1.12.H">
        <param key="gtfs.route_name" value="1"/>
        <param key="gtfs.trip_headsign" value="Surlej, Corvatschbahn"/>
    </vehicle>
    <vehicle id="1290.TA.92-1-N-j24-1.12.H" route="1014.TA.92-1-N-j24-1.12.H" type="bus" depart="37800" line="1014.TA.92-1-N-j24-1.12.H">
        <param key="gtfs.route_name" value="1"/>
        <param key="gtfs.trip_headsign" value="Surlej, Corvatschbahn"/>
    </vehicle>
    <vehicle id="1313.TA.92-1-N-j24-1.12.H" route="1014.TA.92-1-N-j24-1.12.H" type="bus" depart="45000" line="1014.TA.92-1-N-j24-1.12.H">
        <param key="gtfs.route_name" value="1"/>
        <param key="gtfs.trip_headsign" value="Surlej, Corvatschbahn"/>
    </vehicle>
    <vehicle id="1331.TA.92-1-N-j24-1.12.H" route="1014.TA.92-1-N-j24-1.12.H" type="bus" depart="34200" line="1014.TA.92-1-N-j24-1.12.H">
        <param key="gtfs.route_name" value="1"/>
        <param key="gtfs.trip_headsign" value="Surlej, Corvatschbahn"/>
    </vehicle>
    <vehicle id="1374.TA.92-1-N-j24-1.12.H" route="1014.TA.92-1-N-j24-1.12.H" type="bus" depart="59400" line="1014.TA.92-1-N-j24-1.12.H">
        <param key="gtfs.route_name" value="1"/>
        <param key="gtfs.trip_headsign" value="Surlej, Corvatschbahn"/>
    </vehicle>
    <vehicle id="1599.TA.92-1-N-j24-1.13.R" route="1599.TA.92-1-N-j24-1.13.R" type="bus" depart="74700" line="1599.TA.92-1-N-j24-1.13.R">
        <param key="gtfs.route_name" value="1"/>
        <param key="gtfs.trip_headsign" value="St. Moritz, Bahnhof"/>
    </vehicle>
    <vehicle id="1610.TA.92-1-N-j24-1.13.R" route="1599.TA.92-1-N-j24-1.13.R" type="bus" depart="23940" line="1599.TA.92-1-N-j24-1.13.R">
        <param key="gtfs.route_name" value="1"/>
        <param key="gtfs.trip_headsign" value="St. Moritz, Bahnhof"/>
    </vehicle>
    <vehicle id="1614.TA.92-1-N-j24-1.13.R" route="1599.TA.92-1-N-j24-1.13.R" type="bus" depart="71100" line="1599.TA.92-1-N-j24-1.13.R">
        <param key="gtfs.route_name" value="1"/>
        <param key="gtfs.trip_headsign" value="St. Moritz, Bahnhof"/>
    </vehicle>
    <vehicle id="1666.TA.92-1-N-j24-1.13.R" route="1599.TA.92-1-N-j24-1.13.R" type="bus" depart="27540" line="1599.TA.92-1-N-j24-1.13.R">
        <param key="gtfs.route_name" value="1"/>
        <param key="gtfs.trip_headsign" value="St. Moritz, Bahnhof"/>
    </vehicle>
    <vehicle id="1690.TA.92-1-N-j24-1.13.R" route="1599.TA.92-1-N-j24-1.13.R" type="bus" depart="69300" line="1599.TA.92-1-N-j24-1.13.R">
        <param key="gtfs.route_name" value="1"/>
        <param key="gtfs.trip_headsign" value="St. Moritz, Bahnhof"/>
    </vehicle>
    <vehicle id="1710.TA.92-1-N-j24-1.13.R" route="1599.TA.92-1-N-j24-1.13.R" type="bus" depart="67140" line="1599.TA.92-1-N-j24-1.13.R">
        <param key="gtfs.route_name" value="1"/>
        <param key="gtfs.trip_headsign" value="St. Moritz, Bahnhof"/>
    </vehicle>
    <vehicle id="1778.TA.92-1-N-j24-1.14.R" route="1778.TA.92-1-N-j24-1.14.R" type="bus" depart="72420" line="1778.TA.92-1-N-j24-1.14.R">
        <param key="gtfs.route_name" value="1"/>
        <param key="gtfs.trip_headsign" value="Samedan, Bahnhof"/>
    </vehicle>
    <vehicle id="1810.TA.92-1-N-j24-1.14.R" route="1778.TA.92-1-N-j24-1.14.R" type="bus" depart="29220" line="1778.TA.92-1-N-j24-1.14.R">
        <param key="gtfs.route_name" value="1"/>
        <param key="gtfs.trip_headsign" value="Samedan, Bahnhof"/>
    </vehicle>
    <vehicle id="1836.TA.92-1-N-j24-1.14.R" route="1778.TA.92-1-N-j24-1.14.R" type="bus" depart="70620" line="1778.TA.92-1-N-j24-1.14.R">
        <param key="gtfs.route_name" value="1"/>
        <param key="gtfs.trip_headsign" value="Samedan, Bahnhof"/>
    </vehicle>
    <vehicle id="1904.TA.92-1-N-j24-1.14.R" route="1778.TA.92-1-N-j24-1.14.R" type="bus" depart="24720" line="1778.TA.92-1-N-j24-1.14.R">
        <param key="gtfs.route_name" value="1"/>
        <param key="gtfs.trip_headsign" value="Samedan, Bahnhof"/>
    </vehicle>
    <vehicle id="2024.TA.92-1-N-j24-1.14.R" route="1778.TA.92-1-N-j24-1.14.R" type="bus" depart="68820" line="1778.TA.92-1-N-j24-1.14.R">
        <param key="gtfs.route_name" value="1"/>
        <param key="gtfs.trip_headsign" value="Samedan, Bahnhof"/>
    </vehicle>
    <vehicle id="2034.TA.92-1-N-j24-1.15.R" route="2034.TA.92-1-N-j24-1.15.R" type="bus" depart="22740" line="2034.TA.92-1-N-j24-1.15.R">
        <param key="gtfs.route_name" value="1"/>
        <param key="gtfs.trip_headsign" value="Pontresina, Bahnhof"/>
    </vehicle>
    <vehicle id="2071.TA.92-1-N-j24-1.17.R" route="2071.TA.92-1-N-j24-1.17.R" type="bus" depart="25980" line="2071.TA.92-1-N-j24-1.17.R">
        <param key="gtfs.route_name" value="1"/>
        <param key="gtfs.trip_headsign" value="St. Moritz, Bahnhof"/>
    </vehicle>
    <vehicle id="2340.TA.92-1-N-j24-1.24.R" route="2340.TA.92-1-N-j24-1.24.R" type="bus" depart="25200" line="2340.TA.92-1-N-j24-1.24.R">
        <param key="gtfs.route_name" value="1"/>
        <param key="gtfs.trip_headsign" value="Samedan, Bahnhof"/>
    </vehicle>
    <vehicle id="2356.TA.92-1-N-j24-1.24.R" route="2340.TA.92-1-N-j24-1.24.R" type="bus" depart="28800" line="2340.TA.92-1-N-j24-1.24.R">
        <param key="gtfs.route_name" value="1"/>
        <param key="gtfs.trip_headsign" value="Samedan, Bahnhof"/>
    </vehicle>
    <vehicle id="238.TA.92-1-N-j24-1.2.H" route="238.TA.92-1-N-j24-1.2.H" type="bus" depart="25320" line="238.TA.92-1-N-j24-1.2.H">
        <param key="gtfs.route_name" value="1"/>
        <param key="gtfs.trip_headsign" value="Pontresina, Post"/>
    </vehicle>
    <vehicle id="2401.TA.92-1-N-j24-1.25.R" route="2401.TA.92-1-N-j24-1.25.R" type="bus" depart="43140" line="2401.TA.92-1-N-j24-1.25.R">
        <param key="gtfs.route_name" value="1"/>
        <param key="gtfs.trip_headsign" value="Samedan, Bahnhof"/>
    </vehicle>
    <vehicle id="2412.TA.92-1-N-j24-1.25.R" route="2401.TA.92-1-N-j24-1.25.R" type="bus" depart="61140" line="2401.TA.92-1-N-j24-1.25.R">
        <param key="gtfs.route_name" value="1"/>
        <param key="gtfs.trip_headsign" value="Samedan, Bahnhof"/>
    </vehicle>
    <vehicle id="2527.TA.92-1-N-j24-1.25.R" route="2401.TA.92-1-N-j24-1.25.R" type="bus" depart="35940" line="2401.TA.92-1-N-j24-1.25.R">
        <param key="gtfs.route_name" value="1"/>
        <param key="gtfs.trip_headsign" value="Samedan, Bahnhof"/>
    </vehicle>
    <vehicle id="2543.TA.92-1-N-j24-1.25.R" route="2401.TA.92-1-N-j24-1.25.R" type="bus" depart="57540" line="2401.TA.92-1-N-j24-1.25.R">
        <param key="gtfs.route_name" value="1"/>
        <param key="gtfs.trip_headsign" value="Samedan, Bahnhof"/>
    </vehicle>
    <vehicle id="2573.TA.92-1-N-j24-1.25.R" route="2401.TA.92-1-N-j24-1.25.R" type="bus" depart="62940" line="2401.TA.92-1-N-j24-1.25.R">
        <param key="gtfs.route_name" value="1"/>
        <param key="gtfs.trip_headsign" value="Samedan, Bahnhof"/>
    </vehicle>
    <vehicle id="2575.TA.92-1-N-j24-1.25.R" route="2401.TA.92-1-N-j24-1.25.R" type="bus" depart="41340" line="2401.TA.92-1-N-j24-1.25.R">
        <param key="gtfs.route_name" value="1"/>
        <param key="gtfs.trip_headsign" value="Samedan, Bahnhof"/>
    </vehicle>
    <vehicle id="2626.TA.92-1-N-j24-1.25.R" route="2401.TA.92-1-N-j24-1.25.R" type="bus" depart="53940" line="2401.TA.92-1-N-j24-1.25.R">
        <param key="gtfs.route_name" value="1"/>
        <param key="gtfs.trip_headsign" value="Samedan, Bahnhof"/>
    </vehicle>
    <vehicle id="2633.TA.92-1-N-j24-1.25.R" route="2401.TA.92-1-N-j24-1.25.R" type="bus" depart="39540" line="2401.TA.92-1-N-j24-1.25.R">
        <param key="gtfs.route_name" value="1"/>
        <param key="gtfs.trip_headsign" value="Samedan, Bahnhof"/>
    </vehicle>
    <vehicle id="2655.TA.92-1-N-j24-1.25.R" route="2401.TA.92-1-N-j24-1.25.R" type="bus" depart="50340" line="2401.TA.92-1-N-j24-1.25.R">
        <param key="gtfs.route_name" value="1"/>
        <param key="gtfs.trip_headsign" value="Samedan, Bahnhof"/>
    </vehicle>
    <vehicle id="2681.TA.92-1-N-j24-1.25.R" route="2401.TA.92-1-N-j24-1.25.R" type="bus" depart="44940" line="2401.TA.92-1-N-j24-1.25.R">
        <param key="gtfs.route_name" value="1"/>
        <param key="gtfs.trip_headsign" value="Samedan, Bahnhof"/>
    </vehicle>
    <vehicle id="2688.TA.92-1-N-j24-1.25.R" route="2401.TA.92-1-N-j24-1.25.R" type="bus" depart="55740" line="2401.TA.92-1-N-j24-1.25.R">
        <param key="gtfs.route_name" value="1"/>
        <param key="gtfs.trip_headsign" value="Samedan, Bahnhof"/>
    </vehicle>
    <vehicle id="2689.TA.92-1-N-j24-1.25.R" route="2401.TA.92-1-N-j24-1.25.R" type="bus" depart="46740" line="2401.TA.92-1-N-j24-1.25.R">
        <param key="gtfs.route_name" value="1"/>
        <param key="gtfs.trip_headsign" value="Samedan, Bahnhof"/>
    </vehicle>
    <vehicle id="2709.TA.92-1-N-j24-1.25.R" route="2401.TA.92-1-N-j24-1.25.R" type="bus" depart="48540" line="2401.TA.92-1-N-j24-1.25.R">
        <param key="gtfs.route_name" value="1"/>
        <param key="gtfs.trip_headsign" value="Samedan, Bahnhof"/>
    </vehicle>
    <vehicle id="2712.TA.92-1-N-j24-1.25.R" route="2401.TA.92-1-N-j24-1.25.R" type="bus" depart="37740" line="2401.TA.92-1-N-j24-1.25.R">
        <param key="gtfs.route_name" value="1"/>
        <param key="gtfs.trip_headsign" value="Samedan, Bahnhof"/>
    </vehicle>
    <vehicle id="2765.TA.92-1-N-j24-1.25.R" route="2401.TA.92-1-N-j24-1.25.R" type="bus" depart="64740" line="2401.TA.92-1-N-j24-1.25.R">
        <param key="gtfs.route_name" value="1"/>
        <param key="gtfs.trip_headsign" value="Samedan, Bahnhof"/>
    </vehicle>
    <vehicle id="2784.TA.92-1-N-j24-1.25.R" route="2401.TA.92-1-N-j24-1.25.R" type="bus" depart="32340" line="2401.TA.92-1-N-j24-1.25.R">
        <param key="gtfs.route_name" value="1"/>
        <param key="gtfs.trip_headsign" value="Samedan, Bahnhof"/>
    </vehicle>
    <vehicle id="2803.TA.92-1-N-j24-1.25.R" route="2401.TA.92-1-N-j24-1.25.R" type="bus" depart="30540" line="2401.TA.92-1-N-j24-1.25.R">
        <param key="gtfs.route_name" value="1"/>
        <param key="gtfs.trip_headsign" value="Samedan, Bahnhof"/>
    </vehicle>
    <vehicle id="2826.TA.92-1-N-j24-1.25.R" route="2401.TA.92-1-N-j24-1.25.R" type="bus" depart="34140" line="2401.TA.92-1-N-j24-1.25.R">
        <param key="gtfs.route_name" value="1"/>
        <param key="gtfs.trip_headsign" value="Samedan, Bahnhof"/>
    </vehicle>
    <vehicle id="2834.TA.92-1-N-j24-1.25.R" route="2401.TA.92-1-N-j24-1.25.R" type="bus" depart="59340" line="2401.TA.92-1-N-j24-1.25.R">
        <param key="gtfs.route_name" value="1"/>
        <param key="gtfs.trip_headsign" value="Samedan, Bahnhof"/>
    </vehicle>
    <vehicle id="2836.TA.92-1-N-j24-1.25.R" route="2401.TA.92-1-N-j24-1.25.R" type="bus" depart="52140" line="2401.TA.92-1-N-j24-1.25.R">
        <param key="gtfs.route_name" value="1"/>
        <param key="gtfs.trip_headsign" value="Samedan, Bahnhof"/>
    </vehicle>
    <vehicle id="322.TA.92-1-N-j24-1.4.H" route="322.TA.92-1-N-j24-1.4.H" type="bus" depart="70200" line="322.TA.92-1-N-j24-1.4.H">
        <param key="gtfs.route_name" value="1"/>
        <param key="gtfs.trip_headsign" value="Pontresina, Post"/>
    </vehicle>
    <vehicle id="329.TA.92-1-N-j24-1.4.H" route="322.TA.92-1-N-j24-1.4.H" type="bus" depart="27000" line="322.TA.92-1-N-j24-1.4.H">
        <param key="gtfs.route_name" value="1"/>
        <param key="gtfs.trip_headsign" value="Pontresina, Post"/>
    </vehicle>
    <vehicle id="515.TA.92-1-N-j24-1.4.H" route="322.TA.92-1-N-j24-1.4.H" type="bus" depart="68400" line="322.TA.92-1-N-j24-1.4.H">
        <param key="gtfs.route_name" value="1"/>
        <param key="gtfs.trip_headsign" value="Pontresina, Post"/>
    </vehicle>
    <vehicle id="528.TA.92-1-N-j24-1.5.H" route="528.TA.92-1-N-j24-1.5.H" type="bus" depart="24900" line="528.TA.92-1-N-j24-1.5.H">
        <param key="gtfs.route_name" value="1"/>
        <param key="gtfs.trip_headsign" value="Champfèr, Guardalej"/>
    </vehicle>
    <vehicle id="620.TA.92-1-N-j24-1.7.H" route="620.TA.92-1-N-j24-1.7.H" type="bus" depart="29100" line="620.TA.92-1-N-j24-1.7.H">
        <param key="gtfs.route_name" value="1"/>
        <param key="gtfs.trip_headsign" value="Surlej, Corvatschbahn"/>
    </vehicle>
    <vehicle id="748.TA.92-1-N-j24-1.10.H" route="748.TA.92-1-N-j24-1.10.H" type="bus" depart="66600" line="748.TA.92-1-N-j24-1.10.H">
        <param key="gtfs.route_name" value="1"/>
        <param key="gtfs.trip_headsign" value="St. Moritz Bad, Via San Gian"/>
    </vehicle>
    <vehicle id="807.TA.92-1-N-j24-1.11.H" route="807.TA.92-1-N-j24-1.11.H" type="bus" depart="64800" line="807.TA.92-1-N-j24-1.11.H">
        <param key="gtfs.route_name" value="1"/>
        <param key="gtfs.trip_headsign" value="Surlej, Foppas"/>
    </vehicle>
    <vehicle id="847.TA.92-1-N-j24-1.11.H" route="807.TA.92-1-N-j24-1.11.H" type="bus" depart="63000" line="807.TA.92-1-N-j24-1.11.H">
        <param key="gtfs.route_name" value="1"/>
        <param key="gtfs.trip_headsign" value="Surlej, Foppas"/>
    </vehicle>
    <vehicle id="869.TA.92-1-N-j24-1.12.H" route="1014.TA.92-1-N-j24-1.12.H" type="bus" depart="28800" line="1014.TA.92-1-N-j24-1.12.H">
        <param key="gtfs.route_name" value="1"/>
        <param key="gtfs.trip_headsign" value="Surlej, Corvatschbahn"/>
    </vehicle>
    <vehicle id="92.TA.92-1-N-j24-1.1.H" route="101.TA.92-1-N-j24-1.1.H" type="bus" depart="70500" line="101.TA.92-1-N-j24-1.1.H">
        <param key="gtfs.route_name" value="1"/>
        <param key="gtfs.trip_headsign" value="St. Moritz Bad, Via San Gian"/>
    </vehicle>
    <vehicle id="951.TA.92-1-N-j24-1.12.H" route="1014.TA.92-1-N-j24-1.12.H" type="bus" depart="50400" line="1014.TA.92-1-N-j24-1.12.H">
        <param key="gtfs.route_name" value="1"/>
        <param key="gtfs.trip_headsign" value="Surlej, Corvatschbahn"/>
    </vehicle>
    <vehicle id="961.TA.92-1-N-j24-1.12.H" route="1014.TA.92-1-N-j24-1.12.H" type="bus" depart="32400" line="1014.TA.92-1-N-j24-1.12.H">
        <param key="gtfs.route_name" value="1"/>
        <param key="gtfs.trip_headsign" value="Surlej, Corvatschbahn"/>
    </vehicle>
    <vehicle id="972.TA.92-1-N-j24-1.12.H" route="1014.TA.92-1-N-j24-1.12.H" type="bus" depart="55800" line="1014.TA.92-1-N-j24-1.12.H">
        <param key="gtfs.route_name" value="1"/>
        <param key="gtfs.trip_headsign" value="Surlej, Corvatschbahn"/>
    </vehicle>
    <vehicle id="981.TA.92-1-N-j24-1.12.H" route="1014.TA.92-1-N-j24-1.12.H" type="bus" depart="52200" line="1014.TA.92-1-N-j24-1.12.H">
        <param key="gtfs.route_name" value="1"/>
        <param key="gtfs.trip_headsign" value="Surlej, Corvatschbahn"/>
    </vehicle>
    <vehicle id="119.TA.92-10-J-j24-1.3.H" route="119.TA.92-10-J-j24-1.3.H" type="bus" depart="86340" line="119.TA.92-10-J-j24-1.3.H">
        <param key="gtfs.route_name" value="10"/>
        <param key="gtfs.trip_headsign" value="Pontresina, Post"/>
    </vehicle>
    <vehicle id="119.TA.92-10-J-j24-1.3.H.trimmed" route="119.TA.92-10-J-j24-1.3.H.trimmed" type="bus" depart="86460" line="119.TA.92-10-J-j24-1.3.H.trimmed">
        <param key="gtfs.route_name" value="10"/>
        <param key="gtfs.trip_headsign" value="Pontresina, Post"/>
    </vehicle>
    <vehicle id="14.TA.92-10-J-j24-1.1.H" route="14.TA.92-10-J-j24-1.1.H" type="bus" depart="75360" line="14.TA.92-10-J-j24-1.1.H">
        <param key="gtfs.route_name" value="10"/>
        <param key="gtfs.trip_headsign" value="Pontresina, Post"/>
    </vehicle>
    <vehicle id="212.TA.92-10-J-j24-1.4.H" route="212.TA.92-10-J-j24-1.4.H" type="bus" depart="76800" line="212.TA.92-10-J-j24-1.4.H">
        <param key="gtfs.route_name" value="10"/>
        <param key="gtfs.trip_headsign" value="St. Moritz Bad, Via San Gian"/>
    </vehicle>
    <vehicle id="226.TA.92-10-J-j24-1.5.H" route="226.TA.92-10-J-j24-1.5.H" type="bus" depart="79560" line="226.TA.92-10-J-j24-1.5.H">
        <param key="gtfs.route_name" value="10"/>
        <param key="gtfs.trip_headsign" value="St. Moritz Bad, Via San Gian"/>
    </vehicle>
    <vehicle id="291.TA.92-10-J-j24-1.5.H" route="226.TA.92-10-J-j24-1.5.H" type="bus" depart="72360" line="226.TA.92-10-J-j24-1.5.H">
        <param key="gtfs.route_name" value="10"/>
        <param key="gtfs.trip_headsign" value="St. Moritz Bad, Via San Gian"/>
    </vehicle>
    <vehicle id="342.TA.92-10-J-j24-1.9.H" route="342.TA.92-10-J-j24-1.9.H" type="bus" depart="77760" line="342.TA.92-10-J-j24-1.9.H">
        <param key="gtfs.route_name" value="10"/>
        <param key="gtfs.trip_headsign" value="Maloja, Posta"/>
    </vehicle>
    <vehicle id="348.TA.92-10-J-j24-1.9.H" route="342.TA.92-10-J-j24-1.9.H" type="bus" depart="84960" line="342.TA.92-10-J-j24-1.9.H">
        <param key="gtfs.route_name" value="10"/>
        <param key="gtfs.trip_headsign" value="Maloja, Posta"/>
    </vehicle>
    <vehicle id="348.TA.92-10-J-j24-1.9.H.trimmed" route="348.TA.92-10-J-j24-1.9.H.trimmed" type="bus" depart="86760" line="348.TA.92-10-J-j24-1.9.H.trimmed">
        <param key="gtfs.route_name" value="10"/>
        <param key="gtfs.trip_headsign" value="Maloja, Posta"/>
    </vehicle>
    <vehicle id="373.TA.92-10-J-j24-1.9.H" route="342.TA.92-10-J-j24-1.9.H" type="bus" depart="74160" line="342.TA.92-10-J-j24-1.9.H">
        <param key="gtfs.route_name" value="10"/>
        <param key="gtfs.trip_headsign" value="Maloja, Posta"/>
    </vehicle>
    <vehicle id="435.TA.92-10-J-j24-1.9.H" route="342.TA.92-10-J-j24-1.9.H" type="bus" depart="81360" line="342.TA.92-10-J-j24-1.9.H">
        <param key="gtfs.route_name" value="10"/>
        <param key="gtfs.trip_headsign" value="Maloja, Posta"/>
    </vehicle>
    <vehicle id="556.TA.92-10-J-j24-1.13.R" route="556.TA.92-10-J-j24-1.13.R" type="bus" depart="76020" line="556.TA.92-10-J-j24-1.13.R">
        <param key="gtfs.route_name" value="10"/>
        <param key="gtfs.trip_headsign" value="Samedan, Bahnhof"/>
    </vehicle>
    <vehicle id="591.TA.92-10-J-j24-1.14.R" route="591.TA.92-10-J-j24-1.14.R" type="bus" depart="74640" line="591.TA.92-10-J-j24-1.14.R">
        <param key="gtfs.route_name" value="10"/>
        <param key="gtfs.trip_headsign" value="Samedan, Bahnhof"/>
    </vehicle>
    <vehicle id="612.TA.92-10-J-j24-1.15.R" route="612.TA.92-10-J-j24-1.15.R" type="bus" depart="78300" line="612.TA.92-10-J-j24-1.15.R">
        <param key="gtfs.route_name" value="10"/>
        <param key="gtfs.trip_headsign" value="Samedan, Bahnhof"/>
    </vehicle>
    <vehicle id="66.TA.92-10-J-j24-1.1.H" route="14.TA.92-10-J-j24-1.1.H" type="bus" depart="83160" line="14.TA.92-10-J-j24-1.1.H">
        <param key="gtfs.route_name" value="10"/>
        <param key="gtfs.trip_headsign" value="Pontresina, Post"/>
    </vehicle>
    <vehicle id="673.TA.92-10-J-j24-1.15.R" route="612.TA.92-10-J-j24-1.15.R" type="bus" depart="81900" line="612.TA.92-10-J-j24-1.15.R">
        <param key="gtfs.route_name" value="10"/>
        <param key="gtfs.trip_headsign" value="Samedan, Bahnhof"/>
    </vehicle>
    <vehicle id="690.TA.92-10-J-j24-1.15.R" route="612.TA.92-10-J-j24-1.15.R" type="bus" depart="76500" line="612.TA.92-10-J-j24-1.15.R">
        <param key="gtfs.route_name" value="10"/>
        <param key="gtfs.trip_headsign" value="Samedan, Bahnhof"/>
    </vehicle>
    <vehicle id="742.TA.92-10-J-j24-1.17.R" route="742.TA.92-10-J-j24-1.17.R" type="bus" depart="72240" line="742.TA.92-10-J-j24-1.17.R">
        <param key="gtfs.route_name" value="10"/>
        <param key="gtfs.trip_headsign" value="Samedan, Bahnhof"/>
    </vehicle>
    <vehicle id="802.TA.92-10-J-j24-1.18.R" route="802.TA.92-10-J-j24-1.18.R" type="bus" depart="83820" line="802.TA.92-10-J-j24-1.18.R">
        <param key="gtfs.route_name" value="10"/>
        <param key="gtfs.trip_headsign" value="S-chanf, Chesa cumünela"/>
    </vehicle>
    <vehicle id="82.TA.92-10-J-j24-1.2.H" route="82.TA.92-10-J-j24-1.2.H" type="bus" depart="88560" line="82.TA.92-10-J-j24-1.2.H">
        <param key="gtfs.route_name" value="10"/>
        <param key="gtfs.trip_headsign" value="Pontresina, Godin"/>
    </vehicle>
    <vehicle id="880.TA.92-10-J-j24-1.20.R" route="880.TA.92-10-J-j24-1.20.R" type="bus" depart="87960" line="880.TA.92-10-J-j24-1.20.R">
        <param key="gtfs.route_name" value="10"/>
        <param key="gtfs.trip_headsign" value="Cinuos-chel-Brail, staziun"/>
    </vehicle>
    <vehicle id="919.TA.92-10-J-j24-1.22.R" route="919.TA.92-10-J-j24-1.22.R" type="bus" depart="81900" line="919.TA.92-10-J-j24-1.22.R">
        <param key="gtfs.route_name" value="10"/>
        <param key="gtfs.trip_headsign" value="Samedan, Bahnhof"/>
    </vehicle>
    <vehicle id="964.TA.92-10-J-j24-1.22.R" route="919.TA.92-10-J-j24-1.22.R" type="bus" depart="85500" line="919.TA.92-10-J-j24-1.22.R">
        <param key="gtfs.route_name" value="10"/>
        <param key="gtfs.trip_headsign" value="Samedan, Bahnhof"/>
    </vehicle>
    <vehicle id="964.TA.92-10-J-j24-1.22.R.trimmed" route="964.TA.92-10-J-j24-1.22.R.trimmed" type="bus" depart="86520" line="964.TA.92-10-J-j24-1.22.R.trimmed">
        <param key="gtfs.route_name" value="10"/>
        <param key="gtfs.trip_headsign" value="Samedan, Bahnhof"/>
    </vehicle>
    <vehicle id="991.TA.92-10-J-j24-1.22.R" route="919.TA.92-10-J-j24-1.22.R" type="bus" depart="78300" line="919.TA.92-10-J-j24-1.22.R">
        <param key="gtfs.route_name" value="10"/>
        <param key="gtfs.trip_headsign" value="Samedan, Bahnhof"/>
    </vehicle>
    <vehicle id="1012.TA.92-2-L-j24-1.20.H" route="1012.TA.92-2-L-j24-1.20.H" type="bus" depart="46800" line="1012.TA.92-2-L-j24-1.20.H">
        <param key="gtfs.route_name" value="2"/>
        <param key="gtfs.trip_headsign" value="Maloja, Posta"/>
    </vehicle>
    <vehicle id="1018.TA.92-2-L-j24-1.20.H" route="1012.TA.92-2-L-j24-1.20.H" type="bus" depart="54000" line="1012.TA.92-2-L-j24-1.20.H">
        <param key="gtfs.route_name" value="2"/>
        <param key="gtfs.trip_headsign" value="Maloja, Posta"/>
    </vehicle>
    <vehicle id="1049.TA.92-2-L-j24-1.22.R" route="1049.TA.92-2-L-j24-1.22.R" type="bus" depart="73800" line="1049.TA.92-2-L-j24-1.22.R">
        <param key="gtfs.route_name" value="2"/>
        <param key="gtfs.trip_headsign" value="St. Moritz, Schulhausplatz"/>
    </vehicle>
    <vehicle id="1084.TA.92-2-L-j24-1.24.R" route="1084.TA.92-2-L-j24-1.24.R" type="bus" depart="25200" line="1084.TA.92-2-L-j24-1.24.R">
        <param key="gtfs.route_name" value="2"/>
        <param key="gtfs.trip_headsign" value="St. Moritz, Schulhausplatz"/>
    </vehicle>
    <vehicle id="112.TA.92-2-L-j24-1.3.H" route="112.TA.92-2-L-j24-1.3.H" type="bus" depart="63840" line="112.TA.92-2-L-j24-1.3.H">
        <param key="gtfs.route_name" value="2"/>
        <param key="gtfs.trip_headsign" value="Silvaplana, Camping"/>
    </vehicle>
    <vehicle id="1174.TA.92-2-L-j24-1.27.R" route="1174.TA.92-2-L-j24-1.27.R" type="bus" depart="63180" line="1174.TA.92-2-L-j24-1.27.R">
        <param key="gtfs.route_name" value="2"/>
        <param key="gtfs.trip_headsign" value="Pontresina, Bahnhof"/>
    </vehicle>
    <vehicle id="1179.TA.92-2-L-j24-1.27.R" route="1174.TA.92-2-L-j24-1.27.R" type="bus" depart="59580" line="1174.TA.92-2-L-j24-1.27.R">
        <param key="gtfs.route_name" value="2"/>
        <param key="gtfs.trip_headsign" value="Pontresina, Bahnhof"/>
    </vehicle>
    <vehicle id="1356.TA.92-2-L-j24-1.30.R" route="1356.TA.92-2-L-j24-1.30.R" type="bus" depart="66600" line="1356.TA.92-2-L-j24-1.30.R">
        <param key="gtfs.route_name" value="2"/>
        <param key="gtfs.trip_headsign" value="Pontresina, Post"/>
    </vehicle>
    <vehicle id="1367.TA.92-2-L-j24-1.30.R" route="1356.TA.92-2-L-j24-1.30.R" type="bus" depart="68400" line="1356.TA.92-2-L-j24-1.30.R">
        <param key="gtfs.route_name" value="2"/>
        <param key="gtfs.trip_headsign" value="Pontresina, Post"/>
    </vehicle>
    <vehicle id="1376.TA.92-2-L-j24-1.30.R" route="1356.TA.92-2-L-j24-1.30.R" type="bus" depart="27000" line="1356.TA.92-2-L-j24-1.30.R">
        <param key="gtfs.route_name" value="2"/>
        <param key="gtfs.trip_headsign" value="Pontresina, Post"/>
    </vehicle>
    <vehicle id="1399.TA.92-2-L-j24-1.30.R" route="1356.TA.92-2-L-j24-1.30.R" type="bus" depart="70200" line="1356.TA.92-2-L-j24-1.30.R">
        <param key="gtfs.route_name" value="2"/>
        <param key="gtfs.trip_headsign" value="Pontresina, Post"/>
    </vehicle>
    <vehicle id="1639.TA.92-2-L-j24-1.36.R" route="1639.TA.92-2-L-j24-1.36.R" type="bus" depart="41580" line="1639.TA.92-2-L-j24-1.36.R">
        <param key="gtfs.route_name" value="2"/>
        <param key="gtfs.trip_headsign" value="Bernina, Lagalbbahn"/>
    </vehicle>
    <vehicle id="1649.TA.92-2-L-j24-1.36.R" route="1639.TA.92-2-L-j24-1.36.R" type="bus" depart="52380" line="1639.TA.92-2-L-j24-1.36.R">
        <param key="gtfs.route_name" value="2"/>
        <param key="gtfs.trip_headsign" value="Bernina, Lagalbbahn"/>
    </vehicle>
    <vehicle id="1659.TA.92-2-L-j24-1.36.R" route="1639.TA.92-2-L-j24-1.36.R" type="bus" depart="45180" line="1639.TA.92-2-L-j24-1.36.R">
        <param key="gtfs.route_name" value="2"/>
        <param key="gtfs.trip_headsign" value="Bernina, Lagalbbahn"/>
    </vehicle>
    <vehicle id="1661.TA.92-2-L-j24-1.36.R" route="1639.TA.92-2-L-j24-1.36.R" type="bus" depart="30780" line="1639.TA.92-2-L-j24-1.36.R">
        <param key="gtfs.route_name" value="2"/>
        <param key="gtfs.trip_headsign" value="Bernina, Lagalbbahn"/>
    </vehicle>
    <vehicle id="1673.TA.92-2-L-j24-1.36.R" route="1639.TA.92-2-L-j24-1.36.R" type="bus" depart="34380" line="1639.TA.92-2-L-j24-1.36.R">
        <param key="gtfs.route_name" value="2"/>
        <param key="gtfs.trip_headsign" value="Bernina, Lagalbbahn"/>
    </vehicle>
    <vehicle id="1687.TA.92-2-L-j24-1.36.R" route="1639.TA.92-2-L-j24-1.36.R" type="bus" depart="55980" line="1639.TA.92-2-L-j24-1.36.R">
        <param key="gtfs.route_name" value="2"/>
        <param key="gtfs.trip_headsign" value="Bernina, Lagalbbahn"/>
    </vehicle>
    <vehicle id="1702.TA.92-2-L-j24-1.36.R" route="1639.TA.92-2-L-j24-1.36.R" type="bus" depart="37980" line="1639.TA.92-2-L-j24-1.36.R">
        <param key="gtfs.route_name" value="2"/>
        <param key="gtfs.trip_headsign" value="Bernina, Lagalbbahn"/>
    </vehicle>
    <vehicle id="1710.TA.92-2-L-j24-1.36.R" route="1639.TA.92-2-L-j24-1.36.R" type="bus" depart="48780" line="1639.TA.92-2-L-j24-1.36.R">
        <param key="gtfs.route_name" value="2"/>
        <param key="gtfs.trip_headsign" value="Bernina, Lagalbbahn"/>
    </vehicle>
    <vehicle id="1815.TA.92-2-L-j24-1.38.R" route="1815.TA.92-2-L-j24-1.38.R" type="bus" depart="63660" line="1815.TA.92-2-L-j24-1.38.R">