<?xml version="1.0" encoding="UTF-8"?>
<additional xmlns:xsi="http://www.w3.org/2001/XMLSchema-instance" xsi:noNamespaceSchemaLocation="http://sumo.dlr.de/xsd/additional_file.xsd">
    <rerouter id="rr0" edges="531892740#1 -543256264#0 -1374129938 -1083273106 25418591#0 -210208895 -1068941219#6 1426892794#0 256959704#2" vTypes="taxi">
        <interval begin="0" end="86400">
            <parkingAreaReroute id="pa_0" visible="true"/>
            <parkingAreaReroute id="pa_1" visible="true"/>
            <parkingAreaReroute id="pa_2" visible="true"/>
            <parkingAreaReroute id="pa_3" visible="true"/>
            <parkingAreaReroute id="pa_4" visible="true"/>
            <parkingAreaReroute id="pa_5" visible="true"/>
            <parkingAreaReroute id="pa_6" visible="true"/>
            <parkingAreaReroute id="pa_7" visible="true"/>
            <parkingAreaReroute id="pa_8" visible="true"/>
        </interval>
    </rerouter>
</additional>
