<?xml version="1.0" encoding="UTF-8"?>

<!-- generated by Eclipse SUMO duarouter Version 1.12.0
<configuration xmlns:xsi="http://www.w3.org/2001/XMLSchema-instance" xsi:noNamespaceSchemaLocation="http://sumo.dlr.de/xsd/duarouterConfiguration.xsd">

    <input>
        <net-file value="D:\Dokumente\sumo\maloja\simple.net.xml"/>
        <additional-files value="D:\Dokumente\sumo\maloja\taz_maloja_simple.add.xml,D:\Dokumente\sumo\maloja\10_camping\taz_camping.add.xml,D:\Dokumente\sumo\maloja\08_summer\taz_summer.add.xml,D:\Dokumente\sumo\maloja\04_shopping\taz_shopping.add.xml,D:\Dokumente\sumo\maloja\03_bus\virtualstop.add.xml,D:\Dokumente\sumo\maloja\03_bus\02_August\vtypes.xml,D:\Dokumente\sumo\maloja\03_bus\02_August\gtfs_pt_stops.add.xml"/>
        <route-files value="D:\Dokumente\sumo\maloja\10_camping\persontrips_maloja_camping_modded_doubled_public_taxi.xml,D:\Dokumente\sumo\maloja\03_bus\02_August\gtfs_pt_vehicles.add.xml"/>
    </input>

    <output>
        <output-file value="D:\Dokumente\sumo\maloja\10_camping\persontrips_maloja_camping_resolved_summer_bus_taxi.rou.xml"/>
        <alternatives-output value="D:\Dokumente\sumo\maloja\10_camping\persontrips_maloja_camping_resolved_summer_bus_taxi.rou.alt.xml"/>
    </output>

    <processing>
        <persontrip.transfer.taxi-walk value="ptStops"/>
        <persontrip.transfer.walk-taxi value="ptStops"/>
    </processing>

    <report>
        <verbose value="true"/>
    </report>

</configuration>
-->

<routes xmlns:xsi="http://www.w3.org/2001/XMLSchema-instance" xsi:noNamespaceSchemaLocation="http://sumo.dlr.de/xsd/routes_file.xsd">
    <person id="c605" depart="28833.54" departPos="random">
        <ride from="76091869#0" to="1068735330#1" arrivalPos="7.04" lines="taxi"/>
        <walk edges="1068735330#1 -1068735330#0" arrivalPos="90.48"/>
    </person>
    <person id="c865" depart="28857.01" departPos="random">
        <ride from="76091869#0" to="-210208895" arrivalPos="18.71" lines="taxi"/>
        <walk edges="-210208895" arrivalPos="35.90"/>
    </person>
    <person id="c1369" depart="28866.73" departPos="random">
        <ride from="-235361058#0" to="30957915" arrivalPos="64.83" lines="taxi"/>
        <walk edges="30957915 -914487470 -25303411#0" arrivalPos="0.45"/>
    </person>
    <person id="c1305" depart="28873.44" departPos="random">
        <ride from="-235361058#0" to="1086005533" arrivalPos="30.56" lines="taxi"/>
        <walk edges="1086005533 1136237769 1086005530 1086005531 -19738795" arrivalPos="50.29"/>
    </person>
    <person id="c166" depart="28888.60" departPos="random">
        <ride from="-842425238" to="-1113164891" arrivalPos="19.64" lines="taxi"/>
        <walk edges="-1113164891 1041492060#1" arrivalPos="9.30"/>
    </person>
    <person id="c816" depart="28892.51" departPos="random">
        <ride from="76091869#0" to="96461180#5" arrivalPos="16.58" lines="taxi"/>
        <walk edges="96461180#5 -96461180#4" arrivalPos="3.75"/>
    </person>
    <person id="c872" depart="28895.19" departPos="random">
        <ride from="76091869#0" to="-210208895" arrivalPos="18.71" lines="taxi"/>
        <walk edges="-210208895" arrivalPos="37.45"/>
    </person>
    <person id="c53" depart="28921.78" departPos="random">
        <ride from="-842425238" to="-96461182#0" arrivalPos="7.50" lines="taxi"/>
        <walk edges="-96461182#0 1472605488#1 1472605488#0 1201541125 52959697#0 52959697#1 52959697#2 -52959697#3 56085325#0 -56085325#1 56085325#2 56085325#3 -56085325#4" arrivalPos="17.24"/>
    </person>
    <person id="c323" depart="28930.11" departPos="random">
        <ride from="1083273110#3" to="-1113164891" arrivalPos="19.64" lines="taxi"/>
        <walk edges="-1113164891 1004933332#1" arrivalPos="10.76"/>
    </person>
    <person id="c1444" depart="29016.05" departPos="random">
        <ride from="-235361058#0" to="-210208895" arrivalPos="18.71" lines="taxi"/>
        <walk edges="-210208895" arrivalPos="37.54"/>
    </person>
    <person id="c826" depart="29018.23" departPos="random">
        <ride from="76091869#0" to="519913261#1" arrivalPos="15.00" lines="taxi"/>
        <walk edges="519913261#1" arrivalPos="0.17"/>
    </person>
    <person id="c829" depart="29065.27" departPos="random">
        <ride from="76091869#0" to="519913257#1" arrivalPos="15.00" lines="taxi"/>
        <walk edges="519913257#1" arrivalPos="19.26"/>
    </person>
    <person id="c1290" depart="29087.53" departPos="random">
        <ride from="-235361058#0" to="208825826" arrivalPos="41.20" lines="taxi"/>
        <walk edges="208825826 208825827#0" arrivalPos="49.94"/>
    </person>
    <person id="c868" depart="29102.63" departPos="random">
        <ride from="76091869#0" to="170952324#1" arrivalPos="7.50" lines="taxi"/>
        <walk edges="170952324#1 170952324#2 170952324#3" arrivalPos="31.55"/>
    </person>
    <person id="c86" depart="29122.82" departPos="random">
        <ride from="-842425238" to="18887954#0" arrivalPos="6.62" lines="taxi"/>
        <walk edges="18887954#0 -116507538#0" arrivalPos="8.33"/>
    </person>
    <person id="c1346" depart="29132.06" departPos="random">
        <ride from="-235361058#0" to="30050433#2" arrivalPos="25.09" lines="taxi"/>
        <walk edges="30050433#2 -30050433#3 -819945220#2" arrivalPos="31.64"/>
    </person>
    <person id="c406" depart="29139.76" departPos="random">
        <ride from="76091869#0" to="-501346489#2" arrivalPos="22.96" lines="taxi"/>
        <walk edges="-501346489#2 501346489#1" arrivalPos="2.10"/>
    </person>
    <person id="c521" depart="29140.80" departPos="random">
        <ride from="76091869#0" to="-96461182#0" arrivalPos="7.50" lines="taxi"/>
        <walk edges="-96461182#0 1472605488#1 1472605488#0 1201541125 52959697#0 52959697#1 52959697#2 -52959697#3 56085325#0 -56085325#1 56085325#2" arrivalPos="43.66"/>
    </person>
    <person id="c501" depart="29142.66" departPos="random">
        <ride from="76091869#0" to="209755663#3" arrivalPos="2.55" lines="taxi"/>
        <walk edges="209755663#3 209755663#2 -209755663#0 1317098557 -58413641 -150335026#4 150335026#3" arrivalPos="9.02"/>
    </person>
    <person id="c286" depart="29150.79" departPos="random">
        <ride from="1083273110#3" to="56240189#0" arrivalPos="27.49" lines="taxi"/>
        <walk edges="56240189#0 -188063062" arrivalPos="13.02"/>
    </person>
    <person id="c426" depart="29155.36" departPos="random">
        <ride from="76091869#0" to="1426892794#3" arrivalPos="11.14" lines="taxi"/>
        <walk edges="1426892794#3 71759543#0 -71759543#1 71759543#2 -71759543#3 522706570#0 -522706566#1 522706566#0 -522706560#1 -522703215#2 -522703215#3" arrivalPos="0.75"/>
    </person>
    <person id="c301" depart="29182.67" departPos="random">
        <ride from="1083273110#3" to="76091869#1" arrivalPos="12.69" lines="taxi"/>
        <walk edges="76091869#1 76091869#0 1136237774 -76091870#0 -1041495497" arrivalPos="19.39"/>
    </person>
    <person id="c68" depart="29217.29" departPos="random">
        <ride from="-842425238" to="-894849663" arrivalPos="34.23" lines="taxi"/>
        <walk edges="-894849663 894849663" arrivalPos="25.23"/>
    </person>
    <person id="c1382" depart="29220.35" departPos="random">
        <ride from="-235361058#0" to="519913265#1" arrivalPos="10.00" lines="taxi"/>
        <walk edges="519913265#1" arrivalPos="17.37"/>
    </person>
    <person id="c388" depart="29225.10" departPos="random">
        <ride from="1083273110#3" to="-894849663" arrivalPos="34.23" lines="taxi"/>
        <walk edges="-894849663 -25418244#0" arrivalPos="13.14"/>
    </person>
    <person id="c1272" depart="29290.24" departPos="random">
        <ride from="-235361058#0" to="56240189#7" arrivalPos="7.50" lines="taxi"/>
        <walk edges="56240189#7 -56240189#8 56240189#9 -973459742#0 -973459742#1 973459742#2 -973459742#3" arrivalPos="73.50"/>
    </person>
    <person id="c836" depart="29303.48" departPos="random">
        <ride from="76091869#0" to="519913257#1" arrivalPos="15.00" lines="taxi"/>
        <walk edges="519913257#1" arrivalPos="25.40"/>
    </person>
    <person id="c1275" depart="29406.98" departPos="random">
        <ride from="-235361058#0" to="-96461182#0" arrivalPos="7.50" lines="taxi"/>
        <walk edges="-96461182#0 1472605488#1 1472605488#0 -150277078#5 150277078#4 -56195874#7 56195874#6 -239035118#5" arrivalPos="6.60"/>
    </person>
    <person id="c352" depart="29417.73" departPos="random">
        <ride from="1083273110#3" to="30957907" arrivalPos="553.86" lines="taxi"/>
        <walk edges="30957907 26167898#0 26167898#1 -26167908#1 26167908#3 26167908#4 235361058#0 235361058#1" arrivalPos="74.68"/>
    </person>
    <person id="c1386" depart="29464.55" departPos="random">
        <ride from="-235361058#0" to="519913263#1" arrivalPos="15.00" lines="taxi"/>
        <walk edges="519913263#1" arrivalPos="6.71"/>
    </person>
    <person id="c592" depart="29474.64" departPos="random">
        <ride from="76091869#0" to="56240189#0" arrivalPos="27.49" lines="taxi"/>
        <walk edges="56240189#0 -188063062" arrivalPos="0.62"/>
    </person>
    <person id="c203" depart="29493.28" departPos="random">
        <ride from="1083273110#3" to="1426892794#3" arrivalPos="11.14" lines="taxi"/>
        <walk edges="1426892794#3 71759543#0 71759543#1" arrivalPos="23.24"/>
    </person>
    <person id="c152" depart="29541.96" departPos="random">
        <ride from="-842425238" to="-894849663" arrivalPos="34.23" lines="taxi"/>
        <walk edges="-894849663 -25418244#0" arrivalPos="10.70"/>
    </person>
    <person id="c486" depart="29555.92" departPos="random">
        <ride from="76091869#0" to="-1443580513#2" arrivalPos="13.80" lines="taxi"/>
        <walk edges="-1443580513#2 -1443580513#3 1443580513#4" arrivalPos="2.05"/>
    </person>
    <person id="c1311" depart="29585.92" departPos="random">
        <ride from="-235361058#0" to="1050853710" arrivalPos="26.41" lines="taxi"/>
        <walk edges="1050853710 -1050853709#1" arrivalPos="3.10"/>
    </person>
    <person id="c807" depart="29586.04" departPos="random">
        <ride from="76091869#0" to="519913257#1" arrivalPos="15.00" lines="taxi"/>
        <walk edges="519913257#1 519913257#0 916468197 72562096#0 89724876#3 916015460#1 916015460#0 1189801663 -268776830#1 268776830#0 888359128#3 14014151 -14014151" arrivalPos="0.01"/>
    </person>
    <person id="c496" depart="29600.84" departPos="random">
        <ride from="76091869#0" to="-894849663" arrivalPos="34.23" lines="taxi"/>
        <walk edges="-894849663 -740107946 -170952321" arrivalPos="214.11"/>
    </person>
    <person id="c639" depart="29653.00" departPos="random">
        <ride from="76091869#0" to="25418590#1" arrivalPos="2.00" lines="taxi"/>
        <walk edges="25418590#1 25418590#0" arrivalPos="10.37"/>
    </person>
    <person id="c544" depart="29663.89" departPos="random">
        <ride from="76091869#0" to="256959704#2" arrivalPos="7.50" lines="taxi"/>
        <walk edges="256959704#2" arrivalPos="3.80"/>
    </person>
    <person id="c1348" depart="29676.52" departPos="random">
        <ride from="-235361058#0" to="-1113164891" arrivalPos="19.64" lines="taxi"/>
        <walk edges="-1113164891 1041492060#1" arrivalPos="1.98"/>
    </person>
    <person id="c1433" depart="29792.58" departPos="random">
        <ride from="-235361058#0" to="1050853710" arrivalPos="26.41" lines="taxi"/>
        <walk edges="1050853710 -1050853709#1" arrivalPos="1.33"/>
    </person>
    <person id="c1307" depart="29804.91" departPos="random">
        <ride from="-235361058#0" to="1068941219#7" arrivalPos="18.33" lines="taxi"/>
        <walk edges="1068941219#7 -1068941219#6" arrivalPos="81.39"/>
    </person>
    <person id="c877" depart="29852.45" departPos="random">
        <ride from="76091869#0" to="170952324#1" arrivalPos="7.50" lines="taxi"/>
        <walk edges="170952324#1 170952324#2 170952324#3" arrivalPos="18.43"/>
    </person>
    <person id="c127" depart="29903.27" departPos="random">
        <ride from="-842425238" to="170952324#1" arrivalPos="7.50" lines="taxi"/>
        <walk edges="170952324#1 170952324#2 170952324#3" arrivalPos="15.57"/>
    </person>
    <person id="c310" depart="29919.15" departPos="random">
        <ride from="1083273110#3" to="30957916#1" arrivalPos="29.75" lines="taxi"/>
        <walk edges="30957916#1" arrivalPos="7.69"/>
    </person>
    <person id="c766" depart="29941.28" departPos="random">
        <ride from="76091869#0" to="1068941219#7" arrivalPos="18.33" lines="taxi"/>
        <walk edges="1068941219#7" arrivalPos="60.20"/>
    </person>
    <person id="c1371" depart="29951.04" departPos="random">
        <ride from="-235361058#0" to="268146940#6" arrivalPos="7.77" lines="taxi"/>
        <walk edges="268146940#6 -268146940#6" arrivalPos="23.01"/>
    </person>
    <person id="c317" depart="29969.09" departPos="random">
        <ride from="1083273110#3" to="519913257#1" arrivalPos="15.00" lines="taxi"/>
        <walk edges="519913257#1 519913257#0 916468197 72562096#0 89724876#3 916015460#1 916015460#0 1189801663 -268776830#1 268776830#0 888359128#3 14014151 -1127470773 -232471144#0 -232471144#1 232471144#2 -1318101191#1 -1318101192 189023055#0 -189023055#1 -189023056#0 189023056#1" arrivalPos="116.63"/>
    </person>
    <person id="c293" depart="29979.20" departPos="random">
        <ride from="1083273110#3" to="-187633169#3" arrivalPos="7.50" lines="taxi"/>
        <walk edges="-187633169#3 187633169#3" arrivalPos="5.37"/>
    </person>
    <person id="c70" depart="30029.13" departPos="random">
        <ride from="-842425238" to="-894849663" arrivalPos="34.23" lines="taxi"/>
        <walk edges="-894849663 894849663" arrivalPos="54.89"/>
    </person>
    <person id="c205" depart="30036.36" departPos="random">
        <ride from="1083273110#3" to="391661586" arrivalPos="62.32" lines="taxi"/>
        <walk edges="391661586 -1083277951#1" arrivalPos="2.64"/>
    </person>
    <person id="c214" depart="30098.74" departPos="random">
        <ride from="1083273110#3" to="1443580513#2" arrivalPos="26.26" lines="taxi"/>
        <walk edges="1443580513#2 -1443580513#3 1443580513#4" arrivalPos="7.68"/>
    </person>
    <person id="c1292" depart="30106.42" departPos="random">
        <ride from="-235361058#0" to="-894849663" arrivalPos="34.23" lines="taxi"/>
        <walk edges="-894849663 894849663" arrivalPos="56.82"/>
    </person>
    <person id="c1418" depart="30123.32" departPos="random">
        <ride from="-235361058#0" to="25303487#3" arrivalPos="46.08" lines="taxi"/>
        <walk edges="25303487#3 -25303487#3" arrivalPos="70.42"/>
    </person>
    <person id="c123" depart="30159.91" departPos="random">
        <ride from="-842425238" to="519913257#1" arrivalPos="15.00" lines="taxi"/>
        <walk edges="519913257#1" arrivalPos="27.47"/>
    </person>
    <person id="c211" depart="30196.33" departPos="random">
        <ride from="1083273110#3" to="430248865#1" arrivalPos="7.50" lines="taxi"/>
        <walk edges="430248865#1 1069366697" arrivalPos="11.89"/>
    </person>
    <person id="c118" depart="30199.14" departPos="random">
        <ride from="-842425238" to="519913257#1" arrivalPos="15.00" lines="taxi"/>
        <walk edges="519913257#1" arrivalPos="14.10"/>
    </person>
    <person id="c831" depart="30205.02" departPos="random">
        <ride from="76091869#0" to="519913261#1" arrivalPos="15.00" lines="taxi"/>
        <walk edges="519913261#1" arrivalPos="16.44"/>
    </person>
    <person id="cga136" depart="30205.95" departPos="random">
        <ride from="-842425238" to="-502426855#1" arrivalPos="50.34" lines="taxi"/>
        <walk edges="-502426855#1 -502426855#2 -1083276373 -1169006585 31060929#0 -31060929#1 -31060929#2 1101989249" arrivalPos="4.44"/>
    </person>
    <person id="cgb136" depart="30205.95" departPos="random">
        <ride from="-842425238" to="-502426855#1" arrivalPos="50.34" lines="taxi"/>
        <walk edges="-502426855#1 -502426855#2 -1083276373 -1169006585 31060929#0 -31060929#1 -31060929#2 1101989249" arrivalPos="25.15"/>
    </person>
    <person id="c815" depart="30207.38" departPos="random">
        <ride from="76091869#0" to="30952515#0" arrivalPos="5.29" lines="taxi"/>
        <walk edges="30952515#0 72562019#0 -72562019#1 72562019#2 72562019#3 72562019#4 1435131955#1 -1435131955#2 -894841757 -209049898 1219872252" arrivalPos="24.80"/>
    </person>
    <person id="c1387" depart="30276.97" departPos="random">
        <ride from="-235361058#0" to="519913257#1" arrivalPos="15.00" lines="taxi"/>
        <walk edges="519913257#1" arrivalPos="18.36"/>
    </person>
    <person id="c407" depart="30301.16" departPos="random">
        <ride from="76091869#0" to="-890169725#1" arrivalPos="3.04" lines="taxi"/>
        <walk edges="-890169725#1 -890169725#2 -1458230345 222705331" arrivalPos="19.36"/>
    </person>
    <person id="c491" depart="30351.54" departPos="random">
        <ride from="76091869#0" to="-1443580513#2" arrivalPos="13.80" lines="taxi"/>
        <walk edges="-1443580513#2 -1443580513#3 1443580513#4" arrivalPos="0.36"/>
    </person>
    <person id="c777" depart="30388.81" departPos="random">
        <ride from="76091869#0" to="-187633169#3" arrivalPos="7.50" lines="taxi"/>
        <walk edges="-187633169#3 187633169#3" arrivalPos="16.81"/>
    </person>
    <person id="cga143" depart="30393.62" departPos="random">
        <ride from="-842425238" to="-502426855#1" arrivalPos="50.34" lines="taxi"/>
        <walk edges="-502426855#1 -502426855#2 -1083276373 -1169006585 31060929#0 -31060929#1 -31060929#2 1101989249" arrivalPos="14.40"/>
    </person>
    <person id="cgb143" depart="30393.62" departPos="random">
        <ride from="-842425238" to="-502426855#1" arrivalPos="50.34" lines="taxi"/>
        <walk edges="-502426855#1 -502426855#2 -1083276373 -1169006585 31060929#0 -31060929#1 -31060929#2 1101989249" arrivalPos="24.45"/>
    </person>
    <person id="cga964" depart="30395.86" departPos="random">
        <ride from="76091869#0" to="18887954#0" arrivalPos="6.62" lines="taxi"/>
        <walk edges="18887954#0 -116715858" arrivalPos="2.43"/>
    </person>
    <person id="cgb964" depart="30395.86" departPos="random">
        <ride from="76091869#0" to="18887954#0" arrivalPos="6.62" lines="taxi"/>
        <walk edges="18887954#0 -116715858" arrivalPos="6.48"/>
    </person>
    <person id="c184" depart="30452.57" departPos="random">
        <ride from="1083273110#3" to="-69218976#0" arrivalPos="93.33" lines="taxi"/>
        <walk edges="-69218976#0 69219145" arrivalPos="141.96"/>
    </person>
    <person id="c1328" depart="30474.79" departPos="random">
        <ride from="-235361058#0" to="76091869#1" arrivalPos="12.69" lines="taxi"/>
        <walk edges="76091869#1" arrivalPos="168.79"/>
    </person>
    <person id="c880" depart="30475.81" departPos="random">
        <ride from="76091869#0" to="-268146971#2" arrivalPos="37.39" lines="taxi"/>
        <walk edges="-268146971#2" arrivalPos="27.85"/>
    </person>
    <person id="c634" depart="30493.20" departPos="random">
        <ride from="76091869#0" to="30957916#1" arrivalPos="29.75" lines="taxi"/>
        <walk edges="30957916#1 -96461188 30957932#0 30957932#1" arrivalPos="8.61"/>
    </person>
    <person id="c687" depart="30495.71" departPos="random">
        <ride from="76091869#0" to="30957916#1" arrivalPos="29.75" lines="taxi"/>
        <walk edges="30957916#1 -96461188 30957932#0 -30957932#1 30957932#2 -30957932#3 -30957933" arrivalPos="48.33"/>
    </person>
    <person id="c263" depart="30534.61" departPos="random">
        <ride from="1083273110#3" to="-96461182#0" arrivalPos="7.50" lines="taxi"/>
        <walk edges="-96461182#0 1472605488#1 1472605488#0 1201541125 52959697#0" arrivalPos="0.48"/>
    </person>
    <person id="c391" depart="30535.93" departPos="random">
        <ride from="1083273110#3" to="-894849663" arrivalPos="34.23" lines="taxi"/>
        <walk edges="-894849663 -25418244#0" arrivalPos="2.53"/>
    </person>
    <person id="cga971" depart="30539.83" departPos="random">
        <ride from="76091869#0" to="18887954#0" arrivalPos="6.62" lines="taxi"/>
        <walk edges="18887954#0 -116715858" arrivalPos="1.70"/>
    </person>
    <person id="cgb971" depart="30539.83" departPos="random">
        <ride from="76091869#0" to="18887954#0" arrivalPos="6.62" lines="taxi"/>
        <walk edges="18887954#0 -116715858" arrivalPos="2.90"/>
    </person>
    <person id="c1230" depart="30552.71" departPos="random">
        <ride from="-235361058#0" to="430248865#1" arrivalPos="7.50" lines="taxi"/>
        <walk edges="430248865#1 -430248865#0" arrivalPos="103.31"/>
    </person>
    <person id="c1303" depart="30595.75" departPos="random">
        <ride from="-235361058#0" to="1068941219#7" arrivalPos="18.33" lines="taxi"/>
        <walk edges="1068941219#7 -1068941219#8 -1068941219#9 1068941218 -612250570#0" arrivalPos="183.81"/>
    </person>
    <person id="c176" depart="30610.52" departPos="random">
        <ride from="1083273110#3" to="62065386" arrivalPos="7.50" lines="taxi"/>
        <walk edges="62065386 120839520 -41157381 171771447#1 171771447#2 -171771447#3 890086160#0 890086160#1 -890086160#2 -171771427" arrivalPos="17.35"/>
    </person>
    <person id="c321" depart="30616.96" departPos="random">
        <ride from="1083273110#3" to="519913265#1" arrivalPos="10.00" lines="taxi"/>
        <walk edges="519913265#1 519913265#0 903531446" arrivalPos="4.59"/>
    </person>
    <person id="c158" depart="30628.28" departPos="random">
        <ride from="-842425238" to="-894849663" arrivalPos="34.23" lines="taxi"/>
        <walk edges="-894849663 -25418244#0" arrivalPos="9.49"/>
    </person>
    <person id="c1351" depart="30633.34" departPos="random">
        <ride from="-235361058#0" to="268146940#6" arrivalPos="7.77" lines="taxi"/>
        <walk edges="268146940#6 25366042#0 -25366042#1" arrivalPos="78.86"/>
    </person>
    <person id="c1403" depart="30644.08" departPos="random">
        <ride from="-235361058#0" to="-210208895" arrivalPos="18.71" lines="taxi"/>
        <walk edges="-210208895" arrivalPos="30.99"/>
    </person>
    <person id="cga1056" depart="30644.15" departPos="random">
        <ride from="76091869#0" to="18887954#0" arrivalPos="6.62" lines="taxi"/>
        <walk edges="18887954#0 -116715858" arrivalPos="14.12"/>
    </person>
    <person id="cgb1056" depart="30644.15" departPos="random">
        <ride from="76091869#0" to="18887954#0" arrivalPos="6.62" lines="taxi"/>
        <walk edges="18887954#0 -116715858" arrivalPos="18.57"/>
    </person>
    <person id="c108" depart="30649.67" departPos="random">
        <ride from="-842425238" to="-30957915" arrivalPos="9.76" lines="taxi"/>
        <walk edges="-30957915 51814854 -89726026#0 -89726026#1" arrivalPos="41.80"/>
    </person>
    <person id="cga1063" depart="30662.88" departPos="random">
        <ride from="76091869#0" to="18887954#0" arrivalPos="6.62" lines="taxi"/>
        <walk edges="18887954#0 -116715858" arrivalPos="21.19"/>
    </person>
    <person id="cgb1063" depart="30662.88" departPos="random">
        <ride from="76091869#0" to="18887954#0" arrivalPos="6.62" lines="taxi"/>
        <walk edges="18887954#0 -116715858" arrivalPos="15.11"/>
    </person>
    <person id="c502" depart="30673.22" departPos="random">
        <ride from="76091869#0" to="209755663#3" arrivalPos="2.55" lines="taxi"/>
        <walk edges="209755663#3 209755663#2 -209755663#0 1317098557 59637812#0 59637812#1 -59637812#2 -59637812#3 59637812#4 -59637812#5 59637812#7 -59637812#8 59637812#9 -59637812#10 -1086010084 -1086010083 -175833044#1 175833044#0 175833041 175833047#0 -175833047#1 -175833047#2 -175833043 -426408073 198123924#0" arrivalPos="48.22"/>
    </person>
    <person id="c761" depart="30698.54" departPos="random">
        <ride from="76091869#0" to="18887954#0" arrivalPos="6.62" lines="taxi"/>
        <walk edges="18887954#0 116715858 -147218475#2" arrivalPos="27.72"/>
    </person>
    <person id="c405" depart="30760.62" departPos="random">
        <ride from="76091869#0" to="890169725#1" arrivalPos="3.09" lines="taxi"/>
        <walk edges="890169725#1 -890169725#0" arrivalPos="0.34"/>
    </person>
    <person id="c889" depart="30802.43" departPos="random">
        <ride from="76091869#0" to="519913265#1" arrivalPos="10.00" lines="taxi"/>
        <walk edges="519913265#1 519913265#0 903531446" arrivalPos="6.55"/>
    </person>
    <person id="c810" depart="30805.96" departPos="random">
        <ride from="76091869#0" to="-30957915" arrivalPos="9.76" lines="taxi"/>
        <walk edges="-30957915 120840708 819945220#0 819945220#1" arrivalPos="12.27"/>
    </person>
    <person id="cga1481" depart="30824.98" departPos="random">
        <ride from="1101989249" to="1083273108#2" arrivalPos="7.50" lines="taxi"/>
        <walk edges="1083273108#2 123066460 1083299692 1083273109 -1085583302#0 1083273110#3" arrivalPos="44.92"/>
    </person>
    <person id="cgb1481" depart="30824.98" departPos="random">
        <ride from="1101989249" to="1083273108#2" arrivalPos="7.50" lines="taxi"/>
        <walk edges="1083273108#2 123066460 1083299692 1083273109 -1085583302#0 1083273110#3" arrivalPos="32.07"/>
    </person>
    <person id="c512" depart="30848.98" departPos="random">
        <ride from="76091869#0" to="209755663#3" arrivalPos="2.55" lines="taxi"/>
        <walk edges="209755663#3 -209755663#2" arrivalPos="48.26"/>
    </person>
    <person id="c558" depart="30852.80" departPos="random">
        <ride from="76091869#0" to="-894849663" arrivalPos="34.23" lines="taxi"/>
        <walk edges="-894849663 894849663" arrivalPos="40.48"/>
    </person>
    <person id="c404" depart="30870.22" departPos="random">
        <ride from="76091869#0" to="391661586" arrivalPos="62.32" lines="taxi"/>
        <walk edges="391661586 1083277951#1 1083277951#0 -349618630#1 349618630#0 -741319024#2 -741319024#1 1083351544" arrivalPos="41.92"/>
    </person>
    <person id="c817" depart="30880.92" departPos="random">
        <ride from="76091869#0" to="25303487#3" arrivalPos="46.08" lines="taxi"/>
        <walk edges="25303487#3 -25303487#3" arrivalPos="53.53"/>
    </person>
    <person id="c823" depart="30897.41" departPos="random">
        <ride from="76091869#0" to="-268146971#2" arrivalPos="37.39" lines="taxi"/>
        <walk edges="-268146971#2 -268146971#3 -268146971#4 1435131960#1 1435131960#2 -543256264#0 543256264#1" arrivalPos="2.01"/>
    </person>
    <person id="c66" depart="30915.84" departPos="random">
        <ride from="-842425238" to="-96461182#0" arrivalPos="7.50" lines="taxi"/>
        <walk edges="-96461182#0 96461182#1 -96461182#2 -66846274 14014133#2 14014133#3 -56240279#4" arrivalPos="18.64"/>
    </person>
    <person id="c27" depart="30916.75" departPos="random">
        <ride from="-842425238" to="430248865#10" arrivalPos="19.03" lines="taxi"/>
        <walk edges="430248865#10 430248865#9" arrivalPos="109.76"/>
    </person>
    <person id="c1189" depart="30925.97" departPos="random">
        <ride from="76091869#0" to="1050853710" arrivalPos="26.41" lines="taxi"/>
        <walk edges="1050853710 -1050853709#1" arrivalPos="3.15"/>
    </person>
    <person id="c1252" depart="30928.85" departPos="random">
        <ride from="-235361058#0" to="-1443580513#2" arrivalPos="13.80" lines="taxi"/>
        <walk edges="-1443580513#2 -1443580513#3 1443580513#4" arrivalPos="3.82"/>
    </person>
    <person id="c38" depart="30938.70" departPos="random">
        <ride from="-842425238" to="-1443580513#2" arrivalPos="13.80" lines="taxi"/>
        <walk edges="-1443580513#2 -1443580513#3 1443580513#4" arrivalPos="5.29"/>
    </person>
    <person id="c54" depart="30960.73" departPos="random">
        <ride from="-842425238" to="-96461182#0" arrivalPos="7.50" lines="taxi"/>
        <walk edges="-96461182#0" arrivalPos="9.88"/>
    </person>
    <person id="c1345" depart="30970.37" departPos="random">
        <ride from="-235361058#0" to="894576901#0" arrivalPos="26.60" lines="taxi"/>
        <walk edges="894576901#0 -41595603#2 -819942940#1 -152522410#1 -152390930#1" arrivalPos="13.62"/>
    </person>
    <person id="c1178" depart="31000.79" departPos="random">
        <ride from="76091869#0" to="1050853710" arrivalPos="26.41" lines="taxi"/>
        <walk edges="1050853710 -1050853709#1" arrivalPos="0.33"/>
    </person>
    <person id="c1350" depart="31006.10" departPos="random">
        <ride from="-235361058#0" to="30957915" arrivalPos="64.83" lines="taxi"/>
        <walk edges="30957915" arrivalPos="35.00"/>
    </person>
    <person id="c329" depart="31021.78" departPos="random">
        <ride from="1083273110#3" to="268146940#6" arrivalPos="7.77" lines="taxi"/>
        <walk edges="268146940#6 268146940#5 -268146940#4 268146940#3 268146940#2 578147406" arrivalPos="22.26"/>
    </person>
    <person id="c312" depart="31067.71" departPos="random">
        <ride from="1083273110#3" to="30957916#1" arrivalPos="29.75" lines="taxi"/>
        <walk edges="30957916#1" arrivalPos="35.77"/>
    </person>
    <person id="c1209" depart="31079.20" departPos="random">
        <ride from="76091869#0" to="-268146971#2" arrivalPos="37.39" lines="taxi"/>
        <walk edges="-268146971#2 -268146971#3" arrivalPos="7.65"/>
    </person>
    <person id="c867" depart="31080.96" departPos="random">
        <ride from="76091869#0" to="30952515#0" arrivalPos="5.29" lines="taxi"/>
        <walk edges="30952515#0 72562019#0 72562019#1" arrivalPos="5.03"/>
    </person>
    <person id="c320" depart="31085.33" departPos="random">
        <ride from="1083273110#3" to="-268146971#2" arrivalPos="37.39" lines="taxi"/>