<?xml version="1.0" encoding="UTF-8"?>

<!-- generated by Eclipse SUMO duarouter Version 1.12.0
<configuration xmlns:xsi="http://www.w3.org/2001/XMLSchema-instance" xsi:noNamespaceSchemaLocation="http://sumo.dlr.de/xsd/duarouterConfiguration.xsd">

    <input>
        <net-file value="D:\Dokumente\sumo\maloja\simple.net.xml"/>
        <additional-files value="D:\Dokumente\sumo\maloja\taz_maloja_simple.add.xml,D:\Dokumente\sumo\maloja\10_camping\taz_camping.add.xml,D:\Dokumente\sumo\maloja\08_summer\taz_summer.add.xml,D:\Dokumente\sumo\maloja\04_shopping\taz_shopping.add.xml,D:\Dokumente\sumo\maloja\03_bus\virtualstop.add.xml,D:\Dokumente\sumo\maloja\03_bus\02_August\vtypes.xml,D:\Dokumente\sumo\maloja\03_bus\02_August\gtfs_pt_stops.add.xml"/>
        <route-files value="D:\Dokumente\sumo\maloja\10_camping\persontrips_maloja_camping_modded_doubled.xml,D:\Dokumente\sumo\maloja\03_bus\02_August\gtfs_pt_vehicles.add.xml"/>
    </input>

    <output>
        <output-file value="D:\Dokumente\sumo\maloja\10_camping\persontrips_maloja_camping_resolved_summer_bus_final.rou.xml"/>
        <alternatives-output value="D:\Dokumente\sumo\maloja\10_camping\persontrips_maloja_camping_resolved_summer_bus_final.rou.alt.xml"/>
    </output>

    <processing>
        <persontrip.transfer.taxi-walk value="ptStops"/>
        <persontrip.transfer.walk-taxi value="ptStops"/>
    </processing>

    <report>
        <verbose value="true"/>
    </report>

</configuration>
-->

<routes xmlns:xsi="http://www.w3.org/2001/XMLSchema-instance" xsi:noNamespaceSchemaLocation="http://sumo.dlr.de/xsd/routes_file.xsd">
    <person id="c605" depart="28833.54" departPos="random">
        <walk edges="76091869#0 1136237774 -76091870#0 76091870#1 76091870#2 1136237781 -117614806 -187198083#0 187198083#1 -187198083#2 -187198083#3 187198083#5 187198083#6 -187198083#7 31061888#1 116715858 147218475#2 -147218475#0 1086005527#0 1086005528 14014136#0 1136237770 1086005533" busStop="2545.TA.92-1-N-j24-1.95.R.3"/> <!-- Silvaplana, Rundella Curtins -->
        <ride busStop="1193.TA.92-10-J-j24-1.22.R.13" lines="1401.TA.92-2-L-j24-1.27.R" intended="1595.TA.92-2-L-j24-1.27.R.0" depart="30830.00"/> <!-- Champfèr, Guardalej -->
        <walk edges="1068735330#1 -1068735330#0" arrivalPos="90.48"/>
    </person>
    <person id="c865" depart="28857.01" departPos="random">
        <walk edges="76091869#0 1136237774 -76091870#0 76091870#1 76091870#2 1136237781 -117614806 -187198083#0 187198083#1 -187198083#2 -187198083#3 187198083#5 187198083#6 -187198083#7 31061888#1 116715858 147218475#2 -147218475#0 1086005527#0 1086005528 14014136#0 1136237770 1086005533" busStop="2545.TA.92-1-N-j24-1.95.R.3"/> <!-- Silvaplana, Rundella Curtins -->
        <ride busStop="1193.TA.92-10-J-j24-1.22.R.23" lines="1401.TA.92-2-L-j24-1.27.R" intended="1595.TA.92-2-L-j24-1.27.R.0" depart="30830.00"/> <!-- St. Moritz, Kulm -->
        <walk edges="268146940#6 268146940#5 -268146940#4 268146940#3 39830434#0 39830434#1 -39830434#2 -391952926#3 391952926#2 391952926#1 -1115015077#2 1115015077#1 1115015078#3 -1115015078#2 -1115015078#1 1115015078#0 -268152262#6 -268152262#5 268152262#4 268152262#3 -268152262#2 268152262#1 -1115015079#3 1115015079#2 -210208895" arrivalPos="35.90"/>
    </person>
    <person id="c1369" depart="28866.73" departPos="random">
        <walk edges="-235361058#0 235361058#0 26167908#4 26167908#3 26167908#1 26167898#1 26167898#0 -30957907" busStop="1323.TA.92-1-N-j24-1.88.H.25"/> <!-- St. Moritz Bad, Campingplatz -->
        <ride busStop="1674.TA.92-1-N-j24-1.90.R.3" lines="2917.TA.92-6-I-j24-1.22.R" intended="3365.TA.92-6-I-j24-1.22.R.0" depart="29750.00"/> <!-- St. Moritz Bad, Kath. Kirche -->
        <walk edges="-30957915 -914487470 -25303411#0" arrivalPos="0.45"/>
    </person>
    <person id="c1305" depart="28873.44" departPos="random">
        <walk edges="-235361058#0 235361058#0 26167908#4 26167908#3 26167908#1 26167898#1 26167898#0 -30957907" busStop="1323.TA.92-1-N-j24-1.88.H.25"/> <!-- St. Moritz Bad, Campingplatz -->
        <ride busStop="1323.TA.92-1-N-j24-1.88.H.26" lines="660.TA.92-1-N-j24-1.81.H" intended="736.TA.92-1-N-j24-1.81.H.0" depart="29810.00"/> <!-- Silvaplana, Rundella Curtins -->
        <walk edges="1086005529 1136237770 1136237769 1086005530 1086005531 -19738795" arrivalPos="50.29"/>
    </person>
    <person id="c166" depart="28888.60" departPos="random">
        <walk edges="-842425238 1068735315#1 -307930214 175833048 -677287119#0 70702070#0 208826840#2 -501346487 -315159496#0" busStop="1193.TA.92-10-J-j24-1.22.R.1"/> <!-- Maloja, Capolago -->
        <ride busStop="1193.TA.92-10-J-j24-1.22.R.23" lines="2142.TA.92-2-L-j24-1.38.R" intended="2357.TA.92-2-L-j24-1.38.R.0" depart="31310.00"/> <!-- St. Moritz, Kulm -->
        <walk edges="268146940#6 268146940#5 -268146940#4 268146940#3 39830434#0 39830434#1 -39830434#2 -391952926#3 391952926#2 391952926#1 -1115015077#2 1115015077#1 1115015078#3 -1115015078#2 -1115015078#1 1115015078#0 -268152262#6 -268152262#5 268152262#4 268152262#3 -268152262#2 268152262#1 -1115015079#3 1115015079#2 -1115015079#0 1115015083 1041492060#1" arrivalPos="9.30"/>
    </person>
    <person id="c816" depart="28892.51" departPos="random">
        <walk edges="76091869#0 1136237774 -76091870#0 76091870#1 76091870#2 1136237781 -117614806 -187198083#0 187198083#1 -187198083#2 -187198083#3 187198083#5 187198083#6 -187198083#7 31061888#1 116715858 147218475#2 -147218475#0 1086005527#0 1086005528 14014136#0 1136237770 1086005533" busStop="2545.TA.92-1-N-j24-1.95.R.3"/> <!-- Silvaplana, Rundella Curtins -->
        <ride busStop="2545.TA.92-1-N-j24-1.95.R.4" lines="61.TA.96-290-0-j24-1.30.R" intended="61.TA.96-290-0-j24-1.30.R.0" depart="30710.00"/> <!-- St. Moritz Bad, Campingplatz -->
        <ride busStop="1674.TA.92-1-N-j24-1.90.R.1" lines="2545.TA.92-1-N-j24-1.95.R" intended="2581.TA.92-1-N-j24-1.95.R.0" depart="30950.00"/> <!-- St. Moritz Bad, Hallenbad -->
        <ride busStop="1003.TA.92-9-H-j24-1.10.H.8" lines="1003.TA.92-9-H-j24-1.10.H" intended="646.TA.92-9-H-j24-1.10.H.0" depart="31190.00"/> <!-- St. Moritz Bad, Giand'Alva -->
        <walk edges="96461180#5 -96461180#4" arrivalPos="3.75"/>
    </person>
    <person id="c872" depart="28895.19" departPos="random">
        <walk edges="76091869#0 1136237774 -76091870#0 76091870#1 76091870#2 1136237781 -117614806 -187198083#0 187198083#1 -187198083#2 -187198083#3 187198083#5 187198083#6 -187198083#7 31061888#1 116715858 147218475#2 -147218475#0 1086005527#0 1086005528 14014136#0 1136237770 1086005533" busStop="2545.TA.92-1-N-j24-1.95.R.3"/> <!-- Silvaplana, Rundella Curtins -->
        <ride busStop="1193.TA.92-10-J-j24-1.22.R.23" lines="1401.TA.92-2-L-j24-1.27.R" intended="1595.TA.92-2-L-j24-1.27.R.0" depart="30830.00"/> <!-- St. Moritz, Kulm -->
        <walk edges="268146940#6 268146940#5 -268146940#4 268146940#3 39830434#0 39830434#1 -39830434#2 -391952926#3 391952926#2 391952926#1 -1115015077#2 1115015077#1 1115015078#3 -1115015078#2 -1115015078#1 1115015078#0 -268152262#6 -268152262#5 268152262#4 268152262#3 -268152262#2 268152262#1 -1115015079#3 1115015079#2 -210208895" arrivalPos="37.45"/>
    </person>
    <person id="c53" depart="28921.78" departPos="random">
        <walk edges="-842425238 1068735315#1 -307930214 175833048 -677287119#0 70702070#0 208826840#2 -501346487 -315159496#0" busStop="1193.TA.92-10-J-j24-1.22.R.1"/> <!-- Maloja, Capolago -->
        <ride busStop="1193.TA.92-10-J-j24-1.22.R.6" lines="2142.TA.92-2-L-j24-1.38.R" intended="2357.TA.92-2-L-j24-1.38.R.0" depart="31310.00"/> <!-- Sils/Segl Maria, Seglias -->
        <walk edges="1472605488#2 1472605488#1 1472605488#0 1201541125 52959697#0 52959697#1 52959697#2 -52959697#3 56085325#0 -56085325#1 56085325#2 56085325#3 -56085325#4" arrivalPos="17.24"/>
    </person>
    <person id="c323" depart="28930.11" departPos="random">
        <walk edges="1083273110#3 -1083273110#3 -1085583302#0 1083273109 1083299692 123066460 1083273108#2 -1083273108#3 1069366694#1 1069366694#2 -1069366694#3 1069366694#4 1443580513#0 -1443580513#1 1443580513#2" busStop="36.TA.96-290-0-j24-1.27.R.6"/> <!-- Pranzaira, Albigna -->
        <ride busStop="36.TA.96-290-0-j24-1.27.R.12" lines="48.TA.96-290-0-j24-1.17.R" intended="48.TA.96-290-0-j24-1.17.R.0" depart="31610.00"/> <!-- Maloja, Cad'Maté -->
        <walk edges="977972909 -315159485#0 -315159485#1 315159485#2 315159485#3 315159485#4 -315159485#5 -315159485#6 1068729371#0 -1068729371#1 -1068729371#2 170952349#0 -170952349#1 -977972910" busStop="1193.TA.92-10-J-j24-1.22.R.0"/> <!-- Maloja, Posta -->
        <ride busStop="2545.TA.92-1-N-j24-1.95.R.3" lines="48.TA.96-290-0-j24-1.17.R" intended="48.TA.96-290-0-j24-1.17.R.0" depart="33050.00"/> <!-- Silvaplana, Rundella Curtins -->
        <ride busStop="1193.TA.92-10-J-j24-1.22.R.23" lines="1401.TA.92-2-L-j24-1.27.R" intended="1452.TA.92-2-L-j24-1.27.R.0" depart="34430.00"/> <!-- St. Moritz, Kulm -->
        <walk edges="268146940#6 268146940#5 -268146940#4 268146940#3 39830434#0 39830434#1 -39830434#2 -391952926#3 391952926#2 391952926#1 -1115015077#2 1115015077#1 1115015078#3 -1115015078#2 -1115015078#1 1115015078#0 -268152262#6 -268152262#5 268152262#4 268152262#3 -268152262#2 268152262#1 -1115015079#3 1115015079#2 -1115015079#0 1115015083 1004933332#1" arrivalPos="10.76"/>
    </person>
    <person id="c1444" depart="29016.05" departPos="random">
        <walk edges="-235361058#0 235361058#0 26167908#4 26167908#3 26167908#1 26167898#1 26167898#0 -30957907" busStop="1323.TA.92-1-N-j24-1.88.H.25"/> <!-- St. Moritz Bad, Campingplatz -->
        <ride busStop="1674.TA.92-1-N-j24-1.90.R.6" lines="2917.TA.92-6-I-j24-1.22.R" intended="3365.TA.92-6-I-j24-1.22.R.0" depart="29750.00"/> <!-- St. Moritz, Schulhausplatz -->
        <walk edges="-819942944#4 819945211 -1467922383 819945210#0 41595601#0 -41595601#2 41595601#3 41595601#4 -41595601#5 -1005052428#1 -1005052428#2 819942942#0 152390930#1 -1005048061#2 1005048061#1 -1005048061#0 1005048062#1 -578147406 -268146940#2 39830434#0 39830434#1 -39830434#2 -391952926#3 391952926#2 391952926#1 -1115015077#2 1115015077#1 1115015078#3 -1115015078#2 -1115015078#1 1115015078#0 -268152262#6 -268152262#5 268152262#4 268152262#3 -268152262#2 268152262#1 -1115015079#3 1115015079#2 -210208895" arrivalPos="37.54"/>
    </person>
    <person id="c826" depart="29018.23" departPos="random">
        <walk edges="76091869#0 1136237774 -76091870#0 76091870#1 76091870#2 1136237781 -117614806 -187198083#0 187198083#1 -187198083#2 -187198083#3 187198083#5 187198083#6 -187198083#7 31061888#1 116715858 147218475#2 -147218475#0 1086005527#0 1086005528 14014136#0 1136237770 1086005533" busStop="2545.TA.92-1-N-j24-1.95.R.3"/> <!-- Silvaplana, Rundella Curtins -->
        <ride busStop="1.TA.92-4-Q-j24-1.1.R.13" lines="61.TA.96-290-0-j24-1.30.R" intended="61.TA.96-290-0-j24-1.30.R.0" depart="30710.00"/> <!-- St. Moritz, Bahnhof -->
        <walk edges="519913257#1 519913257#0 -904728442 519913261#0 519913261#1" arrivalPos="0.17"/>
    </person>
    <person id="c829" depart="29065.27" departPos="random">
        <walk edges="76091869#0 1136237774 -76091870#0 76091870#1 76091870#2 1136237781 -117614806 -187198083#0 187198083#1 -187198083#2 -187198083#3 187198083#5 187198083#6 -187198083#7 31061888#1 116715858 147218475#2 -147218475#0 1086005527#0 1086005528 14014136#0 1136237770 1086005533" busStop="2545.TA.92-1-N-j24-1.95.R.3"/> <!-- Silvaplana, Rundella Curtins -->
        <ride busStop="1.TA.92-4-Q-j24-1.1.R.13" lines="61.TA.96-290-0-j24-1.30.R" intended="61.TA.96-290-0-j24-1.30.R.0" depart="30710.00"/> <!-- St. Moritz, Bahnhof -->
        <walk edges="519913257#1" arrivalPos="19.26"/>
    </person>
    <person id="c1290" depart="29087.53" departPos="random">
        <walk edges="-235361058#0 235361058#0 26167908#4 26167908#3 26167908#1 26167898#1 26167898#0 -30957907" busStop="1323.TA.92-1-N-j24-1.88.H.25"/> <!-- St. Moritz Bad, Campingplatz -->
        <ride busStop="1323.TA.92-1-N-j24-1.88.H.26" lines="660.TA.92-1-N-j24-1.81.H" intended="736.TA.92-1-N-j24-1.81.H.0" depart="29810.00"/> <!-- Silvaplana, Rundella Curtins -->
        <ride busStop="506.TA.92-10-J-j24-1.71.H.32" lines="20.TA.96-290-0-j24-1.10.H" intended="26.TA.96-290-0-j24-1.10.H.0" depart="30410.00"/> <!-- Plaun da Lej -->
        <walk edges="208825826 208825827#0" arrivalPos="49.94"/>
    </person>
    <person id="c868" depart="29102.63" departPos="random">
        <walk edges="76091869#0 1136237774 -76091870#0 76091870#1 76091870#2 1136237781 -117614806 -187198083#0 187198083#1 -187198083#2 -187198083#3 187198083#5 187198083#6 -187198083#7 31061888#1 116715858 147218475#2 -147218475#0 1086005527#0 1086005528 14014136#0 1136237770 1086005533" busStop="2545.TA.92-1-N-j24-1.95.R.3"/> <!-- Silvaplana, Rundella Curtins -->
        <ride busStop="2545.TA.92-1-N-j24-1.95.R.4" lines="61.TA.96-290-0-j24-1.30.R" intended="61.TA.96-290-0-j24-1.30.R.0" depart="30710.00"/> <!-- St. Moritz Bad, Campingplatz -->
        <ride busStop="1674.TA.92-1-N-j24-1.90.R.0" lines="2545.TA.92-1-N-j24-1.95.R" intended="2581.TA.92-1-N-j24-1.95.R.0" depart="30950.00"/> <!-- St. Moritz Bad, Via San Gian -->
        <walk edges="170952324#1 170952324#2 170952324#3" arrivalPos="31.55"/>
    </person>
    <person id="c86" depart="29122.82" departPos="random">
        <walk edges="-842425238 1068735315#1 -307930214 175833048 -677287119#0 70702070#0 208826840#2 -501346487 -315159496#0" busStop="1193.TA.92-10-J-j24-1.22.R.1"/> <!-- Maloja, Capolago -->
        <ride busStop="2545.TA.92-1-N-j24-1.95.R.3" lines="2142.TA.92-2-L-j24-1.38.R" intended="2357.TA.92-2-L-j24-1.38.R.0" depart="31310.00"/> <!-- Silvaplana, Rundella Curtins -->
        <walk edges="1086005533 1136237770 14014136#0 1086005528 -1086005527#0 -147218475#0 147218475#2 -116715858 -116507538#0" arrivalPos="8.33"/>
    </person>
    <person id="c1346" depart="29132.06" departPos="random">
        <walk edges="-235361058#0 235361058#0 26167908#4 26167908#3 26167908#1 26167898#1 26167898#0 -30957907" busStop="1323.TA.92-1-N-j24-1.88.H.25"/> <!-- St. Moritz Bad, Campingplatz -->
        <ride busStop="1674.TA.92-1-N-j24-1.90.R.2" lines="2917.TA.92-6-I-j24-1.22.R" intended="3365.TA.92-6-I-j24-1.22.R.0" depart="29750.00"/> <!-- St. Moritz Bad, Sonne -->
        <walk edges="30050433#2 -30050433#3 -819945220#2" arrivalPos="31.64"/>
    </person>
    <person id="c406" depart="29139.76" departPos="random">
        <walk edges="76091869#0 -209788013" busStop="506.TA.92-10-J-j24-1.71.H.27"/> <!-- Silvaplana, Camping -->
        <ride busStop="506.TA.92-10-J-j24-1.71.H.29" lines="2337.TA.92-6-I-j24-1.16.H" intended="2337.TA.92-6-I-j24-1.16.H.0" depart="29690.00"/> <!-- Sils/Segl Maria, Posta -->
        <ride busStop="16.TA.96-290-0-j24-1.26.H.1" lines="20.TA.96-290-0-j24-1.10.H" intended="26.TA.96-290-0-j24-1.10.H.0" depart="30950.00"/> <!-- Maloja, Cad'Maté -->
        <walk edges="-501346489#2 501346489#1" arrivalPos="2.10"/>
    </person>
    <person id="c521" depart="29140.80" departPos="random">
        <walk edges="76091869#0 -209788013" busStop="506.TA.92-10-J-j24-1.71.H.27"/> <!-- Silvaplana, Camping -->
        <ride busStop="506.TA.92-10-J-j24-1.71.H.28" lines="2337.TA.92-6-I-j24-1.16.H" intended="2337.TA.92-6-I-j24-1.16.H.0" depart="29690.00"/> <!-- Sils/Segl Maria, Seglias -->
        <walk edges="-96461182#0 1472605488#1 1472605488#0 1201541125 52959697#0 52959697#1 52959697#2 -52959697#3 56085325#0 -56085325#1 56085325#2" arrivalPos="43.66"/>
    </person>
    <person id="c501" depart="29142.66" departPos="random">
        <walk edges="76091869#0 -209788013" busStop="506.TA.92-10-J-j24-1.71.H.27"/> <!-- Silvaplana, Camping -->
        <ride busStop="506.TA.92-10-J-j24-1.71.H.29" lines="2337.TA.92-6-I-j24-1.16.H" intended="2337.TA.92-6-I-j24-1.16.H.0" depart="29690.00"/> <!-- Sils/Segl Maria, Posta -->
        <walk edges="-894905824 -256959704#0 -209755663#4 209755663#3 209755663#2 -209755663#0 1317098557 -58413641 -150335026#4 150335026#3" arrivalPos="9.02"/>
    </person>
    <person id="c286" depart="29150.79" departPos="random">
        <walk edges="1083273110#3 -1083273110#3 -1085583302#0 1083273109 1083299692 123066460 1083273108#2 -1083273108#3 1069366694#1 1069366694#2 -1069366694#3 1069366694#4 1443580513#0 -1443580513#1 1443580513#2" busStop="36.TA.96-290-0-j24-1.27.R.6"/> <!-- Pranzaira, Albigna -->
        <ride busStop="36.TA.96-290-0-j24-1.27.R.12" lines="48.TA.96-290-0-j24-1.17.R" intended="48.TA.96-290-0-j24-1.17.R.0" depart="31610.00"/> <!-- Maloja, Cad'Maté -->
        <walk edges="977972909 -315159485#0 -315159485#1 315159485#2 315159485#3 315159485#4 -315159485#5 -315159485#6 1068729371#0 -1068729371#1 -1068729371#2 170952349#0 -170952349#1 -977972910" busStop="1193.TA.92-10-J-j24-1.22.R.0"/> <!-- Maloja, Posta -->
        <ride busStop="1193.TA.92-10-J-j24-1.22.R.3" lines="48.TA.96-290-0-j24-1.17.R" intended="48.TA.96-290-0-j24-1.17.R.0" depart="33050.00"/> <!-- Sils/Segl Baselgia,San Lurench -->
        <walk edges="56240189#0 -188063062" arrivalPos="13.02"/>
    </person>
    <person id="c426" depart="29155.36" departPos="random">
        <walk edges="76091869#0 -209788013" busStop="506.TA.92-10-J-j24-1.71.H.27"/> <!-- Silvaplana, Camping -->
        <ride busStop="506.TA.92-10-J-j24-1.71.H.29" lines="2337.TA.92-6-I-j24-1.16.H" intended="2337.TA.92-6-I-j24-1.16.H.0" depart="29690.00"/> <!-- Sils/Segl Maria, Posta -->
        <ride busStop="16.TA.96-290-0-j24-1.26.H.16" lines="20.TA.96-290-0-j24-1.10.H" intended="26.TA.96-290-0-j24-1.10.H.0" depart="30950.00"/> <!-- Promontogno, Punt Spizarun -->
        <walk edges="1426892794#3 71759543#0 -71759543#1 71759543#2 -71759543#3 522706570#0 -522706566#1 522706566#0 -522706560#1 -522703215#2 -522703215#3" arrivalPos="0.75"/>
    </person>
    <person id="c301" depart="29182.67" departPos="random">
        <walk edges="1083273110#3 -1083273110#3 -1085583302#0 1083273109 1083299692 123066460 1083273108#2 -1083273108#3 1069366694#1 1069366694#2 -1069366694#3 1069366694#4 1443580513#0 -1443580513#1 1443580513#2" busStop="36.TA.96-290-0-j24-1.27.R.6"/> <!-- Pranzaira, Albigna -->
        <ride busStop="36.TA.96-290-0-j24-1.27.R.12" lines="48.TA.96-290-0-j24-1.17.R" intended="48.TA.96-290-0-j24-1.17.R.0" depart="31610.00"/> <!-- Maloja, Cad'Maté -->
        <walk edges="977972909 -315159485#0 -315159485#1 315159485#2 315159485#3 315159485#4 -315159485#5 -315159485#6 1068729371#0 -1068729371#1 -1068729371#2 170952349#0 -170952349#1 -977972910" busStop="1193.TA.92-10-J-j24-1.22.R.0"/> <!-- Maloja, Posta -->
        <ride busStop="1193.TA.92-10-J-j24-1.22.R.7" lines="48.TA.96-290-0-j24-1.17.R" intended="48.TA.96-290-0-j24-1.17.R.0" depart="33050.00"/> <!-- Silvaplana, Camping -->
        <walk edges="76091869#1 76091869#0 1136237774 -76091870#0 -1041495497" arrivalPos="19.39"/>
    </person>
    <person id="c68" depart="29217.29" departPos="random">
        <walk edges="-842425238 1068735315#1 -307930214 175833048 -677287119#0 70702070#0 208826840#2 -501346487 -315159496#0" busStop="1193.TA.92-10-J-j24-1.22.R.1"/> <!-- Maloja, Capolago -->
        <ride busStop="1193.TA.92-10-J-j24-1.22.R.6" lines="2142.TA.92-2-L-j24-1.38.R" intended="2357.TA.92-2-L-j24-1.38.R.0" depart="31310.00"/> <!-- Sils/Segl Maria, Seglias -->
        <walk edges="1472605488#2 1472605488#1 1472605488#0 1201541125 52959697#0 52959697#1 52959697#2 -52959697#3 -256959700#0 -256959700#2 -170952321 -740107946 894849663" arrivalPos="25.23"/>
    </person>
    <person id="c1382" depart="29220.35" departPos="random">
        <walk edges="-235361058#0 235361058#0 26167908#4 26167908#3 26167908#1 26167898#1 26167898#0 -30957907" busStop="1323.TA.92-1-N-j24-1.88.H.25"/> <!-- St. Moritz Bad, Campingplatz -->
        <ride busStop="1674.TA.92-1-N-j24-1.90.R.6" lines="2917.TA.92-6-I-j24-1.22.R" intended="3365.TA.92-6-I-j24-1.22.R.0" depart="29750.00"/> <!-- St. Moritz, Schulhausplatz -->
        <ride busStop="1323.TA.92-1-N-j24-1.88.H.14" lines="1003.TA.92-9-H-j24-1.10.H" intended="646.TA.92-9-H-j24-1.10.H.0" depart="30650.00"/> <!-- St. Moritz, Bahnhof -->
        <walk edges="519913263#1 519913263#0 -120840710 519913265#0 519913265#1" arrivalPos="17.37"/>
    </person>
    <person id="c388" depart="29225.10" departPos="random">
        <walk edges="1083273110#3 -1083273110#3 -1085583302#0 1083273109 1083299692 123066460 1083273108#2 -1083273108#3 1069366694#1 1069366694#2 -1069366694#3 1069366694#4 1443580513#0 -1443580513#1 1443580513#2" busStop="36.TA.96-290-0-j24-1.27.R.6"/> <!-- Pranzaira, Albigna -->
        <ride busStop="36.TA.96-290-0-j24-1.27.R.12" lines="48.TA.96-290-0-j24-1.17.R" intended="48.TA.96-290-0-j24-1.17.R.0" depart="31610.00"/> <!-- Maloja, Cad'Maté -->
        <walk edges="977972909 -315159485#0 -315159485#1 315159485#2 315159485#3 315159485#4 -315159485#5 -315159485#6 1068729371#0 -1068729371#1 -1068729371#2 170952349#0 -170952349#1 -977972910" busStop="1193.TA.92-10-J-j24-1.22.R.0"/> <!-- Maloja, Posta -->
        <ride busStop="1193.TA.92-10-J-j24-1.22.R.5" lines="48.TA.96-290-0-j24-1.17.R" intended="48.TA.96-290-0-j24-1.17.R.0" depart="33050.00"/> <!-- Sils/Segl Maria, Posta -->
        <walk edges="209755663#3 -209755663#4 -256959704#0 256959704#2" busStop="1905.TA.92-2-L-j24-1.33.R.0"/> <!-- Sils/Segl Maria, Posta -->
        <ride busStop="2337.TA.92-6-I-j24-1.16.H.35" lines="4700.TA.92-6-I-j24-1.34.R" intended="4919.TA.92-6-I-j24-1.34.R.0" depart="34190.00"/> <!-- Sils/Segl Maria,Furtschellasb. -->
        <walk edges="-894849663 -25418244#0" arrivalPos="13.14"/>
    </person>
    <person id="c1272" depart="29290.24" departPos="random">
        <walk edges="-235361058#0 235361058#0 26167908#4 26167908#3 26167908#1 26167898#1 26167898#0 -30957907" busStop="1323.TA.92-1-N-j24-1.88.H.25"/> <!-- St. Moritz Bad, Campingplatz -->
        <ride busStop="1323.TA.92-1-N-j24-1.88.H.26" lines="660.TA.92-1-N-j24-1.81.H" intended="736.TA.92-1-N-j24-1.81.H.0" depart="29810.00"/> <!-- Silvaplana, Rundella Curtins -->
        <ride busStop="506.TA.92-10-J-j24-1.71.H.30" lines="20.TA.96-290-0-j24-1.10.H" intended="26.TA.96-290-0-j24-1.10.H.0" depart="30410.00"/> <!-- Sils/Segl Baselgia, Biblioteca -->
        <walk edges="-56240189#7 -56240189#8 56240189#9 -973459742#0 -973459742#1 973459742#2 -973459742#3" arrivalPos="73.50"/>
    </person>
    <person id="c836" depart="29303.48" departPos="random">
        <walk edges="76091869#0 1136237774 -76091870#0 76091870#1 76091870#2 1136237781 -117614806 -187198083#0 187198083#1 -187198083#2 -187198083#3 187198083#5 187198083#6 -187198083#7 31061888#1 116715858 147218475#2 -147218475#0 1086005527#0 1086005528 14014136#0 1136237770 1086005533" busStop="2545.TA.92-1-N-j24-1.95.R.3"/> <!-- Silvaplana, Rundella Curtins -->
        <ride busStop="1.TA.92-4-Q-j24-1.1.R.13" lines="61.TA.96-290-0-j24-1.30.R" intended="61.TA.96-290-0-j24-1.30.R.0" depart="30710.00"/> <!-- St. Moritz, Bahnhof -->
        <walk edges="519913257#1" arrivalPos="25.40"/>
    </person>
    <person id="c1275" depart="29406.98" departPos="random">
        <walk edges="-235361058#0 235361058#0 26167908#4 26167908#3 26167908#1 26167898#1 26167898#0 -30957907" busStop="1323.TA.92-1-N-j24-1.88.H.25"/> <!-- St. Moritz Bad, Campingplatz -->
        <ride busStop="1323.TA.92-1-N-j24-1.88.H.26" lines="660.TA.92-1-N-j24-1.81.H" intended="736.TA.92-1-N-j24-1.81.H.0" depart="29810.00"/> <!-- Silvaplana, Rundella Curtins -->
        <ride busStop="506.TA.92-10-J-j24-1.71.H.28" lines="20.TA.96-290-0-j24-1.10.H" intended="26.TA.96-290-0-j24-1.10.H.0" depart="30410.00"/> <!-- Sils/Segl Maria, Seglias -->
        <walk edges="-96461182#0 1472605488#1 1472605488#0 -150277078#5 150277078#4 -56195874#7 56195874#6 -239035118#5" arrivalPos="6.60"/>
    </person>
    <person id="c352" depart="29417.73" departPos="random">
        <walk edges="1083273110#3 -1083273110#3 -1085583302#0 1083273109 1083299692 123066460 1083273108#2 -1083273108#3 1069366694#1 1069366694#2 -1069366694#3 1069366694#4 1443580513#0 -1443580513#1 1443580513#2" busStop="36.TA.96-290-0-j24-1.27.R.6"/> <!-- Pranzaira, Albigna -->
        <ride busStop="36.TA.96-290-0-j24-1.27.R.12" lines="48.TA.96-290-0-j24-1.17.R" intended="48.TA.96-290-0-j24-1.17.R.0" depart="31610.00"/> <!-- Maloja, Cad'Maté -->
        <walk edges="977972909 -315159485#0 -315159485#1 315159485#2 315159485#3 315159485#4 -315159485#5 -315159485#6 1068729371#0 -1068729371#1 -1068729371#2 170952349#0 -170952349#1 -977972910" busStop="1193.TA.92-10-J-j24-1.22.R.0"/> <!-- Maloja, Posta -->
        <ride busStop="2545.TA.92-1-N-j24-1.95.R.3" lines="48.TA.96-290-0-j24-1.17.R" intended="48.TA.96-290-0-j24-1.17.R.0" depart="33050.00"/> <!-- Silvaplana, Rundella Curtins -->
        <ride busStop="2545.TA.92-1-N-j24-1.95.R.4" lines="2545.TA.92-1-N-j24-1.95.R" intended="2613.TA.92-1-N-j24-1.95.R.0" depart="34370.00"/> <!-- St. Moritz Bad, Campingplatz -->
        <walk edges="30957907 26167898#0 26167898#1 -26167908#1 26167908#3 26167908#4 235361058#0 235361058#1" arrivalPos="74.68"/>
    </person>
    <person id="c1386" depart="29464.55" departPos="random">
        <walk edges="-235361058#0 235361058#0 26167908#4 26167908#3 26167908#1 26167898#1 26167898#0 30957907" busStop="2545.TA.92-1-N-j24-1.95.R.4"/> <!-- St. Moritz Bad, Campingplatz -->
        <ride busStop="1.TA.92-4-Q-j24-1.1.R.13" lines="61.TA.96-290-0-j24-1.30.R" intended="61.TA.96-290-0-j24-1.30.R.0" depart="30890.00"/> <!-- St. Moritz, Bahnhof -->
        <walk edges="519913257#1 519913257#0 -904728442 -897592613 519913263#0 519913263#1" arrivalPos="6.71"/>
    </person>
    <person id="c592" depart="29474.64" departPos="random">
        <walk edges="76091869#0 -209788013" busStop="506.TA.92-10-J-j24-1.71.H.27"/> <!-- Silvaplana, Camping -->
        <ride busStop="506.TA.92-10-J-j24-1.71.H.29" lines="2337.TA.92-6-I-j24-1.16.H" intended="2337.TA.92-6-I-j24-1.16.H.0" depart="29690.00"/> <!-- Sils/Segl Maria, Posta -->
        <ride busStop="506.TA.92-10-J-j24-1.71.H.31" lines="20.TA.96-290-0-j24-1.10.H" intended="26.TA.96-290-0-j24-1.10.H.0" depart="30950.00"/> <!-- Sils/Segl Baselgia,San Lurench -->
        <walk edges="-56240189#0 -188063062" arrivalPos="0.62"/>
    </person>
    <person id="c203" depart="29493.28" departPos="random">
        <walk edges="1083273110#3 -1083273110#3 -1085583302#0 1083273109 1083299692 123066460 -1083273108#1 1083273108#0 -776871491#2 776871491#1 776871491#0 890169725#5 890169725#3 -890169725#2 890169725#1 -890169725#0 -890169724#2 890169724#1 890169724#0 1083299691#1 120840215 -502426855#2 -502426855#1" busStop="14.TA.96-290-0-j24-1.25.H.9"/> <!-- Vicosoprano, Helvetia -->
        <ride busStop="16.TA.96-290-0-j24-1.26.H.16" lines="20.TA.96-290-0-j24-1.10.H" intended="26.TA.96-290-0-j24-1.10.H.0" depart="32930.00"/> <!-- Promontogno, Punt Spizarun -->
        <walk edges="1426892794#3 71759543#0 71759543#1" arrivalPos="23.24"/>
    </person>
    <person id="c152" depart="29541.96" departPos="random">
        <walk edges="-842425238 1068735315#1 -307930214 175833048 -677287119#0 70702070#0 208826840#2 -501346487 -315159496#0" busStop="1193.TA.92-10-J-j24-1.22.R.1"/> <!-- Maloja, Capolago -->
        <ride busStop="1193.TA.92-10-J-j24-1.22.R.6" lines="2142.TA.92-2-L-j24-1.38.R" intended="2357.TA.92-2-L-j24-1.38.R.0" depart="31310.00"/> <!-- Sils/Segl Maria, Seglias -->
        <walk edges="1472605488#2 1472605488#1 1472605488#0 1201541125 52959697#0 52959697#1 52959697#2 -52959697#3 -256959700#0 -256959700#2 -170952321 -740107946 -25418244#0" arrivalPos="10.70"/>
    </person>
    <person id="c486" depart="29555.92" departPos="random">
        <walk edges="76091869#0 -209788013" busStop="506.TA.92-10-J-j24-1.71.H.27"/> <!-- Silvaplana, Camping -->
        <ride busStop="506.TA.92-10-J-j24-1.71.H.29" lines="2337.TA.92-6-I-j24-1.16.H" intended="2337.TA.92-6-I-j24-1.16.H.0" depart="29690.00"/> <!-- Sils/Segl Maria, Posta -->
        <ride busStop="14.TA.96-290-0-j24-1.25.H.8" lines="20.TA.96-290-0-j24-1.10.H" intended="26.TA.96-290-0-j24-1.10.H.0" depart="30950.00"/> <!-- Pranzaira, Albigna -->
        <walk edges="-1443580513#2 -1443580513#3 1443580513#4" arrivalPos="2.05"/>
    </person>
    <person id="c1311" depart="29585.92" departPos="random">
        <walk edges="-235361058#0 235361058#0 26167908#4 26167908#3 26167908#1 26167898#1 26167898#0 -30957907" busStop="1323.TA.92-1-N-j24-1.88.H.25"/> <!-- St. Moritz Bad, Campingplatz -->
        <ride busStop="1406.TA.92-1-N-j24-1.89.H.29" lines="1406.TA.92-1-N-j24-1.89.H" intended="1571.TA.92-1-N-j24-1.89.H.0" depart="31610.00"/> <!-- Surlej, Corvatschbahn -->
        <walk edges="1050853710 -1050853709#1" arrivalPos="3.10"/>
    </person>
    <person id="c807" depart="29586.04" departPos="random">
        <walk edges="76091869#0 1136237774 -76091870#0 76091870#1 76091870#2 1136237781 -117614806 -187198083#0 187198083#1 -187198083#2 -187198083#3 187198083#5 187198083#6 -187198083#7 31061888#1 116715858 147218475#2 -147218475#0 1086005527#0 1086005528 14014136#0 1136237770 1086005533" busStop="2545.TA.92-1-N-j24-1.95.R.3"/> <!-- Silvaplana, Rundella Curtins -->
        <ride busStop="1.TA.92-4-Q-j24-1.1.R.13" lines="61.TA.96-290-0-j24-1.30.R" intended="61.TA.96-290-0-j24-1.30.R.0" depart="30710.00"/> <!-- St. Moritz, Bahnhof -->
        <walk edges="519913257#1 519913257#0 916468197 72562096#0 89724876#3 916015460#1 916015460#0 1189801663 -268776830#1 268776830#0 888359128#3 14014151 -14014151" arrivalPos="0.01"/>
    </person>
    <person id="c496" depart="29600.84" departPos="random">
        <walk edges="76091869#0 -209788013" busStop="506.TA.92-10-J-j24-1.71.H.27"/> <!-- Silvaplana, Camping -->
        <ride busStop="506.TA.92-10-J-j24-1.71.H.28" lines="2337.TA.92-6-I-j24-1.16.H" intended="2337.TA.92-6-I-j24-1.16.H.0" depart="29690.00"/> <!-- Sils/Segl Maria, Seglias -->