<?xml version="1.0" encoding="UTF-8"?>

<!-- generated by Eclipse SUMO netedit 1.26.0
-->

<additional xmlns:xsi="http://www.w3.org/2001/XMLSchema-instance" xsi:noNamespaceSchemaLocation="http://sumo.dlr.de/xsd/additional_file.xsd">
    <!-- TAZs -->
    <taz id="taz_camping_summer_maloja" shape="22276.15,16487.32 22270.28,16449.12 22247.83,16454.65 22256.04,16488.16 22275.98,16487.49 22276.15,16487.32" color="red">
        <tazSource id="-842425238" weight="1.00"/>
        <tazSink id="-842425238" weight="1.00"/>
    </taz>
    <taz id="taz_camping_summer_mulina" shape="16147.34,10939.70 16168.22,10958.91 16190.46,10945.45 16167.61,10915.64 16146.73,10940.15 16147.34,10939.70" color="red">
        <tazSource id="1083273110#3" weight="1.00"/>
        <tazSink id="1083273110#3" weight="1.00"/>
    </taz>
    <taz id="taz_camping_summer_silvaplana" shape="28559.52,22078.16 28579.90,22077.39 28576.46,22057.53 28561.41,22057.87 28559.95,22078.59 28559.52,22078.16" color="red">
        <tazSource id="76091869#0" weight="1.00"/>
        <tazSink id="76091869#0" weight="1.00"/>
    </taz>
    <taz id="taz_camping_summer_st_moritz" shape="31055.84,24486.27 31075.98,24471.45 31055.47,24459.36 31055.84,24486.64 31055.84,24486.27" color="red">
        <tazSource id="-235361058#0" weight="1.00"/>
        <tazSink id="-235361058#0" weight="1.00"/>
    </taz>
</additional>
