<?xml version="1.0" encoding="UTF-8"?>

<!-- generated by Eclipse SUMO netedit 1.26.0
-->

<additional xmlns:xsi="http://www.w3.org/2001/XMLSchema-instance" xsi:noNamespaceSchemaLocation="http://sumo.dlr.de/xsd/additional_file.xsd">
    <!-- TAZs -->
    <taz id="taz_St_Moritz" shape="29869.96,24720.87 29877.62,24711.14 29862.59,24690.81 29853.75,24680.79 29839.89,24629.21 29869.66,24575.57 29889.70,24543.45 29906.80,24526.94 29926.25,24515.15 29964.27,24505.43 30017.61,24488.04 30093.06,24451.49 30224.94,24368.20 30328.65,24276.14 30379.34,24277.31 30378.17,24242.94 30397.40,24195.74 30467.89,24113.01 30552.30,24011.04 30730.62,23849.35 30924.05,23681.61 31282.19,23388.45 31643.62,23304.64 33249.07,22601.66 33300.50,22666.20 33828.13,23187.92 33960.04,23666.33 33922.63,23987.24 33913.07,25162.52 33724.21,25563.70 33652.94,25652.45 33697.32,25801.71 33717.49,25851.46 33810.27,26024.93 33874.23,26140.62 33910.90,26222.52 33810.66,26484.13 33602.85,26967.00 33561.28,26981.67 33431.70,27080.69 33376.69,27089.24 33093.70,27151.11 32953.68,27232.24 32850.32,27292.25 32633.53,27416.94 32534.86,27409.35 32133.32,27518.66 32047.55,27564.20 31466.64,28270.84 31436.59,28259.27 31255.83,28184.18 31021.18,28085.42 30884.69,28082.15 30765.36,28037.20 30667.28,28027.39 30367.32,27984.78 30253.17,27968.62 29632.92,27997.91 28385.98,27651.93 28209.24,27644.88 28087.31,27614.65 28073.75,27634.02 27868.51,27889.25 27724.43,27879.00 27688.00,27853.13 27540.81,27784.73 27478.52,27728.91 27293.29,27652.07 27140.45,27980.18 26643.93,27906.10 26446.89,28016.44 25490.98,28455.45 25622.37,28056.70 26028.13,25897.54 26073.15,25838.82 26235.63,25828.05 26373.63,25815.33 26543.93,25866.22 26651.59,25810.43 26856.15,25795.75 26891.38,25649.92 26998.18,25339.38 27019.71,25229.76 27595.21,25199.42 29151.58,25423.76 29486.31,25274.99 29869.96,24720.84 29869.96,24720.87" color="green">
        <tazSource id="-1003389943#1" weight="1.00"/>
        <tazSink id="-1003389943#1" weight="1.00"/>
        <tazSource id="-1004133051" weight="1.00"/>
        <tazSink id="-1004133051" weight="1.00"/>
        <tazSource id="577024636" weight="1.00"/>
        <tazSink id="577024636" weight="1.00"/>
        <tazSource id="-577024636" weight="1.00"/>
        <tazSink id="-577024636" weight="1.00"/>
        <tazSource id="-1004133052" weight="1.00"/>
        <tazSink id="-1004133052" weight="1.00"/>
        <tazSource id="-1004133053" weight="1.00"/>
        <tazSink id="-1004133053" weight="1.00"/>
        <tazSource id="-1004133054" weight="1.00"/>
        <tazSink id="-1004133054" weight="1.00"/>
        <tazSource id="-1004133055#0" weight="1.00"/>
        <tazSink id="-1004133055#0" weight="1.00"/>
        <tazSource id="-1004133055#1" weight="1.00"/>
        <tazSink id="-1004133055#1" weight="1.00"/>
        <tazSource id="-1004133055#2" weight="1.00"/>
        <tazSink id="-1004133055#2" weight="1.00"/>
        <tazSource id="-1004133056#2" weight="1.00"/>
        <tazSink id="-1004133056#2" weight="1.00"/>
        <tazSource id="-1004133057" weight="1.00"/>
        <tazSink id="-1004133057" weight="1.00"/>
        <tazSource id="-1004133058" weight="1.00"/>
        <tazSink id="-1004133058" weight="1.00"/>
        <tazSource id="-1004301938" weight="1.00"/>
        <tazSink id="-1004301938" weight="1.00"/>
        <tazSource id="-1004307153" weight="1.00"/>
        <tazSink id="-1004307153" weight="1.00"/>
        <tazSource id="-1004307154#0" weight="1.00"/>
        <tazSink id="-1004307154#0" weight="1.00"/>
        <tazSource id="-1004307154#1" weight="1.00"/>
        <tazSink id="-1004307154#1" weight="1.00"/>
        <tazSource id="-1004307155" weight="1.00"/>
        <tazSink id="-1004307155" weight="1.00"/>
        <tazSource id="-1004342635" weight="1.00"/>
        <tazSink id="-1004342635" weight="1.00"/>
        <tazSource id="-1004771537#0" weight="1.00"/>
        <tazSink id="-1004771537#0" weight="1.00"/>
        <tazSource id="-1004775975" weight="1.00"/>
        <tazSink id="-1004775975" weight="1.00"/>
        <tazSource id="-1004775981#0" weight="1.00"/>
        <tazSink id="-1004775981#0" weight="1.00"/>
        <tazSource id="-1004775981#1" weight="1.00"/>
        <tazSink id="-1004775981#1" weight="1.00"/>
        <tazSource id="-1004775982" weight="1.00"/>
        <tazSink id="-1004775982" weight="1.00"/>
        <tazSource id="-1004775984#0" weight="1.00"/>
        <tazSink id="-1004775984#0" weight="1.00"/>
        <tazSource id="-1004775984#2" weight="1.00"/>
        <tazSink id="-1004775984#2" weight="1.00"/>
        <tazSource id="-1004775985#1" weight="1.00"/>
        <tazSink id="-1004775985#1" weight="1.00"/>
        <tazSource id="-1004930473" weight="1.00"/>
        <tazSink id="-1004930473" weight="1.00"/>
        <tazSource id="-1004933332#0" weight="1.00"/>
        <tazSink id="-1004933332#0" weight="1.00"/>
        <tazSource id="-1004933332#1" weight="1.00"/>
        <tazSink id="-1004933332#1" weight="1.00"/>
        <tazSource id="-1004956062#0" weight="1.00"/>
        <tazSink id="-1004956062#0" weight="1.00"/>
        <tazSource id="-1004956062#1" weight="1.00"/>
        <tazSink id="-1004956062#1" weight="1.00"/>
        <tazSource id="-1004956063" weight="1.00"/>
        <tazSink id="-1004956063" weight="1.00"/>
        <tazSource id="-1004958138" weight="1.00"/>
        <tazSink id="-1004958138" weight="1.00"/>
        <tazSource id="-1004958139" weight="1.00"/>
        <tazSink id="-1004958139" weight="1.00"/>
        <tazSource id="-1004996062" weight="1.00"/>
        <tazSink id="-1004996062" weight="1.00"/>
        <tazSource id="-1005048061#0" weight="1.00"/>
        <tazSink id="-1005048061#0" weight="1.00"/>
        <tazSource id="-1005048061#1" weight="1.00"/>
        <tazSink id="-1005048061#1" weight="1.00"/>
        <tazSource id="-1005048061#2" weight="1.00"/>
        <tazSink id="-1005048061#2" weight="1.00"/>
        <tazSource id="-1005048062#1" weight="1.00"/>
        <tazSink id="-1005048062#1" weight="1.00"/>
        <tazSource id="-1005048063#0" weight="1.00"/>
        <tazSink id="-1005048063#0" weight="1.00"/>
        <tazSource id="-1005048063#1" weight="1.00"/>
        <tazSink id="-1005048063#1" weight="1.00"/>
        <tazSource id="-1005052428#1" weight="1.00"/>
        <tazSink id="-1005052428#1" weight="1.00"/>
        <tazSource id="-1005052428#2" weight="1.00"/>
        <tazSink id="-1005052428#2" weight="1.00"/>
        <tazSource id="-1005059151#0" weight="1.00"/>
        <tazSink id="-1005059151#0" weight="1.00"/>
        <tazSource id="-1005059151#1" weight="1.00"/>
        <tazSink id="-1005059151#1" weight="1.00"/>
        <tazSource id="-1005059152" weight="1.00"/>
        <tazSink id="-1005059152" weight="1.00"/>
        <tazSource id="-1005061949" weight="1.00"/>
        <tazSink id="-1005061949" weight="1.00"/>
        <tazSource id="-1005061950" weight="1.00"/>
        <tazSink id="-1005061950" weight="1.00"/>
        <tazSource id="-1005170350" weight="1.00"/>
        <tazSink id="-1005170350" weight="1.00"/>
        <tazSource id="-1011465615" weight="1.00"/>
        <tazSink id="-1011465615" weight="1.00"/>
        <tazSource id="-1410826248" weight="1.00"/>
        <tazSink id="-1410826248" weight="1.00"/>
        <tazSource id="-1037713529" weight="1.00"/>
        <tazSink id="-1037713529" weight="1.00"/>
        <tazSource id="-1037784235" weight="1.00"/>
        <tazSink id="-1037784235" weight="1.00"/>
        <tazSource id="-1037785897#0" weight="1.00"/>
        <tazSink id="-1037785897#0" weight="1.00"/>
        <tazSource id="-1037785897#1" weight="1.00"/>
        <tazSink id="-1037785897#1" weight="1.00"/>
        <tazSource id="-1037833215#0" weight="1.00"/>
        <tazSink id="-1037833215#0" weight="1.00"/>
        <tazSource id="-1041492060#0" weight="1.00"/>
        <tazSink id="-1041492060#0" weight="1.00"/>
        <tazSource id="-1041492060#1" weight="1.00"/>
        <tazSink id="-1041492060#1" weight="1.00"/>
        <tazSource id="-1046112395" weight="1.00"/>
        <tazSink id="-1046112395" weight="1.00"/>
        <tazSource id="-1046112396" weight="1.00"/>
        <tazSink id="-1046112396" weight="1.00"/>
        <tazSource id="-1046112397#0" weight="1.00"/>
        <tazSink id="-1046112397#0" weight="1.00"/>
        <tazSource id="-1046112397#1" weight="1.00"/>
        <tazSink id="-1046112397#1" weight="1.00"/>
        <tazSource id="-1046112397#2" weight="1.00"/>
        <tazSink id="-1046112397#2" weight="1.00"/>
        <tazSource id="-1056849377" weight="1.00"/>
        <tazSink id="-1056849377" weight="1.00"/>
        <tazSource id="-1056849378" weight="1.00"/>
        <tazSink id="-1056849378" weight="1.00"/>
        <tazSource id="-1068735332#0" weight="1.00"/>
        <tazSink id="-1068735332#0" weight="1.00"/>
        <tazSource id="-1068735332#1" weight="1.00"/>
        <tazSink id="-1068735332#1" weight="1.00"/>
        <tazSource id="-1068735332#2" weight="1.00"/>
        <tazSink id="-1068735332#2" weight="1.00"/>
        <tazSource id="-1068735332#3" weight="1.00"/>
        <tazSink id="-1068735332#3" weight="1.00"/>
        <tazSource id="-1068735333" weight="1.00"/>
        <tazSink id="-1068735333" weight="1.00"/>
        <tazSource id="-1068735334" weight="1.00"/>
        <tazSink id="-1068735334" weight="1.00"/>
        <tazSource id="-1068735336#0" weight="1.00"/>
        <tazSink id="-1068735336#0" weight="1.00"/>
        <tazSource id="-1068735336#1" weight="1.00"/>
        <tazSink id="-1068735336#1" weight="1.00"/>
        <tazSource id="-1068735336#2" weight="1.00"/>
        <tazSink id="-1068735336#2" weight="1.00"/>
        <tazSource id="-1068735336#3" weight="1.00"/>
        <tazSink id="-1068735336#3" weight="1.00"/>
        <tazSource id="-1068735337" weight="1.00"/>
        <tazSink id="-1068735337" weight="1.00"/>
        <tazSource id="-1068735342#0" weight="1.00"/>
        <tazSink id="-1068735342#0" weight="1.00"/>
        <tazSource id="-1068735342#1" weight="1.00"/>
        <tazSink id="-1068735342#1" weight="1.00"/>
        <tazSource id="-1068941216" weight="1.00"/>
        <tazSink id="-1068941216" weight="1.00"/>
        <tazSource id="-1079490137#1" weight="1.00"/>
        <tazSink id="-1079490137#1" weight="1.00"/>
        <tazSource id="-1094223181" weight="1.00"/>
        <tazSink id="-1094223181" weight="1.00"/>
        <tazSource id="-1094223182" weight="1.00"/>
        <tazSink id="-1094223182" weight="1.00"/>
        <tazSource id="-1094223184" weight="1.00"/>
        <tazSink id="-1094223184" weight="1.00"/>
        <tazSource id="-1094223189" weight="1.00"/>
        <tazSink id="-1094223189" weight="1.00"/>
        <tazSource id="-1094223190" weight="1.00"/>
        <tazSink id="-1094223190" weight="1.00"/>
        <tazSource id="-1098478928" weight="1.00"/>
        <tazSink id="-1098478928" weight="1.00"/>
        <tazSource id="-1098735327" weight="1.00"/>
        <tazSink id="-1098735327" weight="1.00"/>
        <tazSource id="-1112568254#0" weight="1.00"/>
        <tazSink id="-1112568254#0" weight="1.00"/>
        <tazSource id="-1112568254#1" weight="1.00"/>
        <tazSink id="-1112568254#1" weight="1.00"/>
        <tazSource id="-1113054108#0" weight="1.00"/>
        <tazSink id="-1113054108#0" weight="1.00"/>
        <tazSource id="-1113054108#1" weight="1.00"/>
        <tazSink id="-1113054108#1" weight="1.00"/>
        <tazSource id="-1113054109" weight="1.00"/>
        <tazSink id="-1113054109" weight="1.00"/>
        <tazSource id="-1113070984" weight="1.00"/>
        <tazSink id="-1113070984" weight="1.00"/>
        <tazSource id="-1113121638#0" weight="1.00"/>
        <tazSink id="-1113121638#0" weight="1.00"/>
        <tazSource id="-1113121638#1" weight="1.00"/>
        <tazSink id="-1113121638#1" weight="1.00"/>
        <tazSource id="-1113121639" weight="1.00"/>
        <tazSink id="-1113121639" weight="1.00"/>
        <tazSource id="-1113121640" weight="1.00"/>
        <tazSink id="-1113121640" weight="1.00"/>
        <tazSource id="-1113136564#0" weight="1.00"/>
        <tazSink id="-1113136564#0" weight="1.00"/>
        <tazSource id="-1113136564#1" weight="1.00"/>
        <tazSink id="-1113136564#1" weight="1.00"/>
        <tazSource id="-1113153167" weight="1.00"/>
        <tazSink id="-1113153167" weight="1.00"/>
        <tazSource id="-1113155692" weight="1.00"/>
        <tazSink id="-1113155692" weight="1.00"/>
        <tazSource id="-1113156864#0" weight="1.00"/>
        <tazSink id="-1113156864#0" weight="1.00"/>
        <tazSource id="-1113156864#1" weight="1.00"/>
        <tazSink id="-1113156864#1" weight="1.00"/>
        <tazSource id="-1113164890" weight="1.00"/>
        <tazSink id="-1113164890" weight="1.00"/>
        <tazSource id="-1113164891" weight="1.00"/>
        <tazSink id="-1113164891" weight="1.00"/>
        <tazSource id="-1113452968" weight="1.00"/>
        <tazSink id="-1113452968" weight="1.00"/>
        <tazSource id="-1113452970#0" weight="1.00"/>
        <tazSink id="-1113452970#0" weight="1.00"/>
        <tazSource id="-1113452970#1" weight="1.00"/>
        <tazSink id="-1113452970#1" weight="1.00"/>
        <tazSource id="-1113452970#2" weight="1.00"/>
        <tazSink id="-1113452970#2" weight="1.00"/>
        <tazSource id="-1114984117#0" weight="1.00"/>
        <tazSink id="-1114984117#0" weight="1.00"/>
        <tazSource id="-1114984121" weight="1.00"/>
        <tazSink id="-1114984121" weight="1.00"/>
        <tazSource id="-1114984125" weight="1.00"/>
        <tazSink id="-1114984125" weight="1.00"/>
        <tazSource id="-1115010266" weight="1.00"/>
        <tazSink id="-1115010266" weight="1.00"/>
        <tazSource id="-1115010273" weight="1.00"/>
        <tazSink id="-1115010273" weight="1.00"/>
        <tazSource id="-1115015077#0" weight="1.00"/>
        <tazSink id="-1115015077#0" weight="1.00"/>
        <tazSource id="-1115015077#1" weight="1.00"/>
        <tazSink id="-1115015077#1" weight="1.00"/>
        <tazSource id="-1115015077#2" weight="1.00"/>
        <tazSink id="-1115015077#2" weight="1.00"/>
        <tazSource id="-1115015078#0" weight="1.00"/>
        <tazSink id="-1115015078#0" weight="1.00"/>
        <tazSource id="-1115015078#1" weight="1.00"/>
        <tazSink id="-1115015078#1" weight="1.00"/>
        <tazSource id="-1115015078#2" weight="1.00"/>
        <tazSink id="-1115015078#2" weight="1.00"/>
        <tazSource id="-1115015079#0" weight="1.00"/>
        <tazSink id="-1115015079#0" weight="1.00"/>
        <tazSource id="-1115015079#2" weight="1.00"/>
        <tazSink id="-1115015079#2" weight="1.00"/>
        <tazSource id="-1115015079#3" weight="1.00"/>
        <tazSink id="-1115015079#3" weight="1.00"/>
        <tazSource id="-1115015080#0" weight="1.00"/>
        <tazSink id="-1115015080#0" weight="1.00"/>
        <tazSource id="-1115015080#1" weight="1.00"/>
        <tazSink id="-1115015080#1" weight="1.00"/>
        <tazSource id="-1115015081" weight="1.00"/>
        <tazSink id="-1115015081" weight="1.00"/>
        <tazSource id="-1115015082" weight="1.00"/>
        <tazSink id="-1115015082" weight="1.00"/>
        <tazSource id="-1115015084#0" weight="1.00"/>
        <tazSink id="-1115015084#0" weight="1.00"/>
        <tazSource id="-1115015084#1" weight="1.00"/>
        <tazSink id="-1115015084#1" weight="1.00"/>
        <tazSource id="-1115020158" weight="1.00"/>
        <tazSink id="-1115020158" weight="1.00"/>
        <tazSource id="-1115020159" weight="1.00"/>
        <tazSink id="-1115020159" weight="1.00"/>
        <tazSource id="-1115020161#0" weight="1.00"/>
        <tazSink id="-1115020161#0" weight="1.00"/>
        <tazSource id="-1115020161#1" weight="1.00"/>
        <tazSink id="-1115020161#1" weight="1.00"/>
        <tazSource id="-1115020161#2" weight="1.00"/>
        <tazSink id="-1115020161#2" weight="1.00"/>
        <tazSource id="-1116543559" weight="1.00"/>
        <tazSink id="-1116543559" weight="1.00"/>
        <tazSource id="-1116543560" weight="1.00"/>
        <tazSink id="-1116543560" weight="1.00"/>
        <tazSource id="-1116543561#0" weight="1.00"/>
        <tazSink id="-1116543561#0" weight="1.00"/>
        <tazSource id="-1116543561#1" weight="1.00"/>
        <tazSink id="-1116543561#1" weight="1.00"/>
        <tazSource id="-1116543561#2" weight="1.00"/>
        <tazSink id="-1116543561#2" weight="1.00"/>
        <tazSource id="-1116543561#3" weight="1.00"/>
        <tazSink id="-1116543561#3" weight="1.00"/>
        <tazSource id="-1127470773" weight="1.00"/>
        <tazSink id="-1127470773" weight="1.00"/>
        <tazSource id="-1127828085" weight="1.00"/>
        <tazSink id="-1127828085" weight="1.00"/>
        <tazSource id="-1132581922" weight="1.00"/>
        <tazSink id="-1132581922" weight="1.00"/>
        <tazSource id="-1146926302#0" weight="1.00"/>
        <tazSink id="-1146926302#0" weight="1.00"/>
        <tazSource id="-1158098637#0" weight="1.00"/>
        <tazSink id="-1158098637#0" weight="1.00"/>
        <tazSource id="-1158098637#1" weight="1.00"/>
        <tazSink id="-1158098637#1" weight="1.00"/>
        <tazSource id="-1158098638" weight="1.00"/>
        <tazSink id="-1158098638" weight="1.00"/>
        <tazSource id="-1158102643#1" weight="1.00"/>
        <tazSink id="-1158102643#1" weight="1.00"/>
        <tazSource id="-1158102646" weight="1.00"/>
        <tazSink id="-1158102646" weight="1.00"/>
        <tazSource id="-1159885471#0" weight="1.00"/>
        <tazSink id="-1159885471#0" weight="1.00"/>
        <tazSource id="-1159885471#1" weight="1.00"/>
        <tazSink id="-1159885471#1" weight="1.00"/>
        <tazSource id="-1159885472#0" weight="1.00"/>
        <tazSink id="-1159885472#0" weight="1.00"/>
        <tazSource id="-1159885472#1" weight="1.00"/>
        <tazSink id="-1159885472#1" weight="1.00"/>
        <tazSource id="-1161282677" weight="1.00"/>
        <tazSink id="-1161282677" weight="1.00"/>
        <tazSource id="-1161282678#0" weight="1.00"/>
        <tazSink id="-1161282678#0" weight="1.00"/>
        <tazSource id="-1161282678#1" weight="1.00"/>
        <tazSink id="-1161282678#1" weight="1.00"/>
        <tazSource id="-1161282679#0" weight="1.00"/>
        <tazSink id="-1161282679#0" weight="1.00"/>
        <tazSource id="-1161282679#1" weight="1.00"/>
        <tazSink id="-1161282679#1" weight="1.00"/>
        <tazSource id="-1161282679#2" weight="1.00"/>
        <tazSink id="-1161282679#2" weight="1.00"/>
        <tazSource id="-1161282679#3" weight="1.00"/>
        <tazSink id="-1161282679#3" weight="1.00"/>
        <tazSource id="-1161282679#4" weight="1.00"/>
        <tazSink id="-1161282679#4" weight="1.00"/>
        <tazSource id="-1161282679#5" weight="1.00"/>
        <tazSink id="-1161282679#5" weight="1.00"/>
        <tazSource id="-1161282679#6" weight="1.00"/>
        <tazSink id="-1161282679#6" weight="1.00"/>
        <tazSource id="-1161282680" weight="1.00"/>
        <tazSink id="-1161282680" weight="1.00"/>
        <tazSource id="-1161287450#0" weight="1.00"/>
        <tazSink id="-1161287450#0" weight="1.00"/>
        <tazSource id="-1161287450#1" weight="1.00"/>
        <tazSink id="-1161287450#1" weight="1.00"/>
        <tazSource id="-1161287450#2" weight="1.00"/>
        <tazSink id="-1161287450#2" weight="1.00"/>
        <tazSource id="-1178518849#0" weight="1.00"/>
        <tazSink id="-1178518849#0" weight="1.00"/>
        <tazSource id="-1178518849#1" weight="1.00"/>
        <tazSink id="-1178518849#1" weight="1.00"/>
        <tazSource id="-1178518852#0" weight="1.00"/>
        <tazSink id="-1178518852#0" weight="1.00"/>
        <tazSource id="-1178518852#1" weight="1.00"/>
        <tazSink id="-1178518852#1" weight="1.00"/>
        <tazSource id="-1178518853" weight="1.00"/>
        <tazSink id="-1178518853" weight="1.00"/>
        <tazSource id="-1178519972#0" weight="1.00"/>
        <tazSink id="-1178519972#0" weight="1.00"/>
        <tazSource id="-1178519972#1" weight="1.00"/>
        <tazSink id="-1178519972#1" weight="1.00"/>
        <tazSource id="-1178519973" weight="1.00"/>
        <tazSink id="-1178519973" weight="1.00"/>
        <tazSource id="-1178731640" weight="1.00"/>
        <tazSink id="-1178731640" weight="1.00"/>
        <tazSource id="-1188913350" weight="1.00"/>
        <tazSink id="-1188913350" weight="1.00"/>
        <tazSource id="-1188928365" weight="1.00"/>
        <tazSink id="-1188928365" weight="1.00"/>
        <tazSource id="-1188928366#0" weight="1.00"/>
        <tazSink id="-1188928366#0" weight="1.00"/>
        <tazSource id="-1188928366#1" weight="1.00"/>
        <tazSink id="-1188928366#1" weight="1.00"/>
        <tazSource id="-1188928367#0" weight="1.00"/>
        <tazSink id="-1188928367#0" weight="1.00"/>
        <tazSource id="-1188928367#1" weight="1.00"/>
        <tazSink id="-1188928367#1" weight="1.00"/>
        <tazSource id="-1188928368#0" weight="1.00"/>
        <tazSink id="-1188928368#0" weight="1.00"/>
        <tazSource id="-1188928368#1" weight="1.00"/>
        <tazSink id="-1188928368#1" weight="1.00"/>
        <tazSource id="-1188928369" weight="1.00"/>
        <tazSink id="-1188928369" weight="1.00"/>
        <tazSource id="-1188928370" weight="1.00"/>
        <tazSink id="-1188928370" weight="1.00"/>
        <tazSource id="-1188928371" weight="1.00"/>
        <tazSink id="-1188928371" weight="1.00"/>
        <tazSource id="-1188928373" weight="1.00"/>
        <tazSink id="-1188928373" weight="1.00"/>
        <tazSource id="-1188934794" weight="1.00"/>
        <tazSink id="-1188934794" weight="1.00"/>
        <tazSource id="-1188934797" weight="1.00"/>
        <tazSink id="-1188934797" weight="1.00"/>
        <tazSource id="-1188934798" weight="1.00"/>
        <tazSink id="-1188934798" weight="1.00"/>
        <tazSource id="-1188934799" weight="1.00"/>
        <tazSink id="-1188934799" weight="1.00"/>
        <tazSource id="-1188934801" weight="1.00"/>
        <tazSink id="-1188934801" weight="1.00"/>
        <tazSource id="-1188995191#0" weight="1.00"/>
        <tazSink id="-1188995191#0" weight="1.00"/>
        <tazSource id="-1188995191#1" weight="1.00"/>
        <tazSink id="-1188995191#1" weight="1.00"/>
        <tazSource id="-1189302818" weight="1.00"/>
        <tazSink id="-1189302818" weight="1.00"/>
        <tazSource id="-1189335018" weight="1.00"/>
        <tazSink id="-1189335018" weight="1.00"/>
        <tazSource id="-1189801662" weight="1.00"/>
        <tazSink id="-1189801662" weight="1.00"/>
        <tazSource id="-1189801663" weight="1.00"/>
        <tazSink id="-1189801663" weight="1.00"/>
        <tazSource id="-120706367" weight="1.00"/>
        <tazSink id="-120706367" weight="1.00"/>
        <tazSource id="-120840705#1" weight="1.00"/>
        <tazSink id="-120840705#1" weight="1.00"/>
        <tazSource id="-120840705#2" weight="1.00"/>
        <tazSink id="-120840705#2" weight="1.00"/>
        <tazSource id="-120840705#3" weight="1.00"/>
        <tazSink id="-120840705#3" weight="1.00"/>
        <tazSource id="-120840705#4" weight="1.00"/>
        <tazSink id="-120840705#4" weight="1.00"/>
        <tazSource id="-120840705#5" weight="1.00"/>
        <tazSink id="-120840705#5" weight="1.00"/>
        <tazSource id="-120840705#6" weight="1.00"/>
        <tazSink id="-120840705#6" weight="1.00"/>
        <tazSource id="-120840705#7" weight="1.00"/>
        <tazSink id="-120840705#7" weight="1.00"/>
        <tazSource id="-120840708" weight="1.00"/>
        <tazSink id="-120840708" weight="1.00"/>
        <tazSource id="-120840710" weight="1.00"/>
        <tazSink id="-120840710" weight="1.00"/>
        <tazSource id="-120840712#0" weight="1.00"/>
        <tazSink id="-120840712#0" weight="1.00"/>
        <tazSource id="-120840712#1" weight="1.00"/>
        <tazSink id="-120840712#1" weight="1.00"/>
        <tazSource id="-120840712#2" weight="1.00"/>
        <tazSink id="-120840712#2" weight="1.00"/>
        <tazSource id="-120840712#3" weight="1.00"/>
        <tazSink id="-120840712#3" weight="1.00"/>
        <tazSource id="-1212189938" weight="1.00"/>
        <tazSink id="-1212189938" weight="1.00"/>
        <tazSource id="-121530547" weight="1.00"/>
        <tazSink id="-121530547" weight="1.00"/>
        <tazSource id="-121530550#3" weight="1.00"/>
        <tazSink id="-121530550#3" weight="1.00"/>
        <tazSource id="-121530550#4" weight="1.00"/>
        <tazSink id="-121530550#4" weight="1.00"/>
        <tazSource id="-121530551#0" weight="1.00"/>
        <tazSink id="-121530551#0" weight="1.00"/>
        <tazSource id="-121530551#1" weight="1.00"/>
        <tazSink id="-121530551#1" weight="1.00"/>
        <tazSource id="-1219872249#0" weight="1.00"/>
        <tazSink id="-1219872249#0" weight="1.00"/>
        <tazSource id="-1219872249#1" weight="1.00"/>
        <tazSink id="-1219872249#1" weight="1.00"/>
        <tazSource id="-1219872250" weight="1.00"/>
        <tazSink id="-1219872250" weight="1.00"/>
        <tazSource id="-1219872251" weight="1.00"/>
        <tazSink id="-1219872251" weight="1.00"/>
        <tazSource id="-122946661" weight="1.00"/>
        <tazSink id="-122946661" weight="1.00"/>
        <tazSource id="-125508969#0" weight="1.00"/>
        <tazSink id="-125508969#0" weight="1.00"/>
        <tazSource id="-125508969#1" weight="1.00"/>
        <tazSink id="-125508969#1" weight="1.00"/>
        <tazSource id="-1278528401#0" weight="1.00"/>
        <tazSink id="-1278528401#0" weight="1.00"/>
        <tazSource id="-1278528401#1" weight="1.00"/>
        <tazSink id="-1278528401#1" weight="1.00"/>
        <tazSource id="-1278528401#2" weight="1.00"/>
        <tazSink id="-1278528401#2" weight="1.00"/>
        <tazSource id="-1278528402" weight="1.00"/>
        <tazSink id="-1278528402" weight="1.00"/>
        <tazSource id="-1300614054" weight="1.00"/>
        <tazSink id="-1300614054" weight="1.00"/>
        <tazSource id="-1304217166" weight="1.00"/>
        <tazSink id="-1304217166" weight="1.00"/>
        <tazSource id="-1304836289#0" weight="1.00"/>
        <tazSink id="-1304836289#0" weight="1.00"/>
        <tazSource id="-1304836289#1" weight="1.00"/>
        <tazSink id="-1304836289#1" weight="1.00"/>
        <tazSource id="-1304836290#0" weight="1.00"/>
        <tazSink id="-1304836290#0" weight="1.00"/>
        <tazSource id="-1304836290#1" weight="1.00"/>
        <tazSink id="-1304836290#1" weight="1.00"/>
        <tazSource id="-1304836290#2" weight="1.00"/>
        <tazSink id="-1304836290#2" weight="1.00"/>
        <tazSource id="-1304836291" weight="1.00"/>
        <tazSink id="-1304836291" weight="1.00"/>
        <tazSource id="-1306226657" weight="1.00"/>
        <tazSink id="-1306226657" weight="1.00"/>
        <tazSource id="-1306226658" weight="1.00"/>
        <tazSink id="-1306226658" weight="1.00"/>
        <tazSource id="-1308678443" weight="1.00"/>
        <tazSink id="-1308678443" weight="1.00"/>
        <tazSource id="-1308678444" weight="1.00"/>
        <tazSink id="-1308678444" weight="1.00"/>
        <tazSource id="-1308678446" weight="1.00"/>
        <tazSink id="-1308678446" weight="1.00"/>
        <tazSource id="-1308678448" weight="1.00"/>
        <tazSink id="-1308678448" weight="1.00"/>
        <tazSource id="-1308678449" weight="1.00"/>
        <tazSink id="-1308678449" weight="1.00"/>
        <tazSource id="-1308678450" weight="1.00"/>
        <tazSink id="-1308678450" weight="1.00"/>
        <tazSource id="-1308678458" weight="1.00"/>
        <tazSink id="-1308678458" weight="1.00"/>
        <tazSource id="-1308678459#0" weight="1.00"/>
        <tazSink id="-1308678459#0" weight="1.00"/>
        <tazSource id="-1308678460" weight="1.00"/>
        <tazSink id="-1308678460" weight="1.00"/>
        <tazSource id="-1308678461#0" weight="1.00"/>
        <tazSink id="-1308678461#0" weight="1.00"/>
        <tazSource id="-1308678461#1" weight="1.00"/>
        <tazSink id="-1308678461#1" weight="1.00"/>
        <tazSource id="-1309370246#0" weight="1.00"/>
        <tazSink id="-1309370246#0" weight="1.00"/>
        <tazSource id="-1309370246#1" weight="1.00"/>
        <tazSink id="-1309370246#1" weight="1.00"/>
        <tazSource id="-1309370260" weight="1.00"/>
        <tazSink id="-1309370260" weight="1.00"/>
        <tazSource id="-1317165737" weight="1.00"/>
        <tazSink id="-1317165737" weight="1.00"/>
        <tazSource id="-1317165738" weight="1.00"/>
        <tazSink id="-1317165738" weight="1.00"/>
        <tazSource id="-1318101187" weight="1.00"/>
        <tazSink id="-1318101187" weight="1.00"/>
        <tazSource id="-1318101190" weight="1.00"/>
        <tazSink id="-1318101190" weight="1.00"/>
        <tazSource id="-1318101191#0" weight="1.00"/>
        <tazSink id="-1318101191#0" weight="1.00"/>
        <tazSource id="-1318101191#1" weight="1.00"/>
        <tazSink id="-1318101191#1" weight="1.00"/>
        <tazSource id="-1318101192" weight="1.00"/>
        <tazSink id="-1318101192" weight="1.00"/>
        <tazSource id="-1318101193#0" weight="1.00"/>
        <tazSink id="-1318101193#0" weight="1.00"/>
        <tazSource id="-1318101193#1" weight="1.00"/>
        <tazSink id="-1318101193#1" weight="1.00"/>
        <tazSource id="-1318101194" weight="1.00"/>
        <tazSink id="-1318101194" weight="1.00"/>
        <tazSource id="-1318101195" weight="1.00"/>
        <tazSink id="-1318101195" weight="1.00"/>
        <tazSource id="-1318101196#0" weight="1.00"/>
        <tazSink id="-1318101196#0" weight="1.00"/>
        <tazSource id="-1320961967" weight="1.00"/>
        <tazSink id="-1320961967" weight="1.00"/>
        <tazSource id="-1321970728#0" weight="1.00"/>
        <tazSink id="-1321970728#0" weight="1.00"/>
        <tazSource id="-1322070512" weight="1.00"/>
        <tazSink id="-1322070512" weight="1.00"/>