<routes xmlns:xsi="http://www.w3.org/2001/XMLSchema-instance" xsi:noNamespaceSchemaLocation="http://sumo.dlr.de/xsd/routes_file.xsd">
    <person id="tp8102" depart="28804.89" departPos="random">
        <ride from="-268146944#1" to="-268146971#2" arrivalPos="37.39" lines="taxi" />
        <walk edges="-268146971#2 -268146971#3" arrivalPos="24.23" />
    </person>
    <person id="tp7997" depart="28805.38" departPos="random">
        <ride from="-819942940#0" to="740109140" arrivalPos="20.48" lines="taxi" />
        <walk edges="740109140" arrivalPos="48.15" />
    </person>
    <person id="tp6618" depart="28805.67" departPos="random">
        <ride from="-25303487#3" to="519913261#1" arrivalPos="15.00" lines="taxi" />
        <walk edges="519913261#1" arrivalPos="1.29" />
    </person>
    <person id="tp5135" depart="28808.97" departPos="random">
        <ride from="208825827#4" to="-894849663" arrivalPos="34.23" lines="taxi" />
        <walk edges="-894849663 -25418244#0" arrivalPos="6.88" />
    </person>
    <person id="tp13758" depart="28811.57" departPos="random">
        <ride from="915198665#2" to="-210208895" arrivalPos="18.71" lines="taxi" />
        <walk edges="-210208895" arrivalPos="29.72" />
    </person>
    <person id="tp6793" depart="28812.43" departPos="random">
        <ride from="-154770319#3" to="519913257#1" arrivalPos="15.00" lines="taxi" />
        <walk edges="519913257#1" arrivalPos="1.25" />
    </person>
    <person id="tp7533" depart="28818.10" departPos="random">
        <ride from="170940321#1" to="-210208895" arrivalPos="18.71" lines="taxi" />
        <walk edges="-210208895" arrivalPos="37.45" />
    </person>
    <person id="tp7292" depart="28819.39" departPos="random">
        <ride from="89726026#3" to="-210208895" arrivalPos="18.71" lines="taxi" />
        <walk edges="-210208895" arrivalPos="12.47" />
    </person>
    <person id="tp7097" depart="28821.49" departPos="random">
        <ride from="-170952324#0" to="-1113164891" arrivalPos="19.64" lines="taxi" />
        <walk edges="-1113164891 1041492060#1" arrivalPos="8.60" />
    </person>
    <person id="tp6137" depart="28824.09" departPos="random">
        <ride from="-268776830#1" to="612250570#5" arrivalPos="377.22" lines="taxi" />
        <walk edges="612250570#5 612250570#4 -612250570#3" arrivalPos="742.21" />
    </person>
    <person id="tp8405" depart="28824.99" departPos="random">
        <ride from="-188727260#0" to="25412019" arrivalPos="14.90" lines="taxi" />
        <walk edges="25412019 25412020#0 152516783#4 152516783#3 152516783#2 152516783#1" arrivalPos="0.37" />
    </person>
    <person id="tp11732" depart="28826.61" departPos="random">
        <ride from="-188731354#1" to="-210208895" arrivalPos="18.71" lines="taxi" />
        <walk edges="-210208895" arrivalPos="33.91" />
    </person>
    <person id="tp6950" depart="28827.32" departPos="random">
        <ride from="1161282677" to="519913265#1" arrivalPos="10.00" lines="taxi" />
        <walk edges="519913265#1" arrivalPos="12.78" />
    </person>
    <person id="tp13933" depart="28830.56" departPos="random">
        <ride from="30050433#1" to="-268146971#2" arrivalPos="37.39" lines="taxi" />
        <walk edges="-268146971#2 -268146971#3" arrivalPos="12.29" />
    </person>
    <person id="tp610" depart="28833.54" departPos="random">
        <ride from="-56195874#1" to="519913265#1" arrivalPos="10.00" lines="taxi" />
        <walk edges="519913265#1 519913265#0 -903531446 -120840712#0 -47578286 -1068735342#0" arrivalPos="8.44" />
    </person>
    <person id="tp12164" depart="28833.56" departPos="random">
        <ride from="-894841757" to="-268146971#2" arrivalPos="37.39" lines="taxi" />
        <walk edges="-268146971#2 -268146971#3" arrivalPos="7.19" />
    </person>
    <person id="tp8907" depart="28833.69" departPos="random">
        <ride from="30050433#3" to="-210208895" arrivalPos="18.71" lines="taxi" />
        <walk edges="-210208895" arrivalPos="3.04" />
    </person>
    <person id="tp13956" depart="28834.95" departPos="random">
        <ride from="154772010" to="-268146971#2" arrivalPos="37.39" lines="taxi" />
        <walk edges="-268146971#2 -268146971#3" arrivalPos="23.81" />
    </person>
    <person id="tp8761" depart="28837.03" departPos="random">
        <ride from="191253662#5" to="-268146971#2" arrivalPos="37.39" lines="taxi" />
        <walk edges="-268146971#2 -268146971#3" arrivalPos="8.75" />
    </person>
    <person id="tp9011" depart="28841.07" departPos="random">
        <ride from="204540721#0" to="-268146971#2" arrivalPos="37.39" lines="taxi" />
        <walk edges="-268146971#2 -268146971#3" arrivalPos="18.59" />
    </person>
    <person id="tp10546" depart="28841.83" departPos="random">
        <ride from="209325454#0" to="-268146971#2" arrivalPos="37.39" lines="taxi" />
        <walk edges="-268146971#2 -268146971#3" arrivalPos="1.26" />
    </person>
    <person id="tp10429" depart="28850.55" departPos="random">
        <ride from="897620166" to="-1113164891" arrivalPos="19.64" lines="taxi" />
        <walk edges="-1113164891 1041492060#1" arrivalPos="8.09" />
    </person>
    <person id="tp10332" depart="28851.05" departPos="random">
        <ride from="127791074" to="-1113164891" arrivalPos="19.64" lines="taxi" />
        <walk edges="-1113164891 1041492060#1" arrivalPos="4.84" />
    </person>
    <person id="tp7960" depart="28861.35" departPos="random">
        <ride from="268152262#1" to="-268146971#2" arrivalPos="37.39" lines="taxi" />
        <walk edges="-268146971#2 -268146971#3" arrivalPos="17.22" />
    </person>
    <person id="tp4482" depart="28865.98" departPos="random">
        <ride from="-175833044#1" to="-894849663" arrivalPos="34.23" lines="taxi" />
        <walk edges="-894849663 -25418244#0" arrivalPos="13.14" />
    </person>
    <person id="tp10113" depart="28873.07" departPos="random">
        <ride from="1127470775" to="740109140" arrivalPos="20.48" lines="taxi" />
        <walk edges="740109140" arrivalPos="55.71" />
    </person>
    <person id="tp8556" depart="28880.71" departPos="random">
        <ride from="894576901#0" to="-268146971#2" arrivalPos="37.39" lines="taxi" />
        <walk edges="-268146971#2 -268146971#3" arrivalPos="24.13" />
    </person>
    <person id="tp11309" depart="28885.19" departPos="random">
        <ride from="916559232#0" to="-1113164891" arrivalPos="19.64" lines="taxi" />
        <walk edges="-1113164891 1041492060#1" arrivalPos="6.25" />
    </person>
    <person id="tp2469" depart="28886.44" departPos="random">
        <ride from="-72561717#2" to="-894849663" arrivalPos="34.23" lines="taxi" />
        <walk edges="-894849663 -25418244#0" arrivalPos="7.61" />
    </person>
    <person id="tp10373" depart="28887.40" departPos="random">
        <ride from="-170952324#5" to="-1113164891" arrivalPos="19.64" lines="taxi" />
        <walk edges="-1113164891 1041492060#1" arrivalPos="3.73" />
    </person>
    <person id="tp9834" depart="28890.04" departPos="random">
        <ride from="1113054108#1" to="740109140" arrivalPos="20.48" lines="taxi" />
        <walk edges="740109140" arrivalPos="2.19" />
    </person>
    <person id="tp6835" depart="28893.65" departPos="random">
        <ride from="-30957910#0" to="519913257#1" arrivalPos="15.00" lines="taxi" />
        <walk edges="519913257#1" arrivalPos="8.64" />
    </person>
    <person id="tp12804" depart="28894.22" departPos="random">
        <ride from="-30952526" to="25412019" arrivalPos="14.90" lines="taxi" />
        <walk edges="25412019 25412020#0 152516783#4 152516783#3 152516783#2 152516783#1" arrivalPos="47.28" />
    </person>
    <person id="tp878" depart="28895.19" departPos="random">
        <ride from="-208825827#4" to="-894849663" arrivalPos="34.23" lines="taxi" />
        <walk edges="-894849663 -25418244#0" arrivalPos="2.23" />
    </person>
    <person id="tp6653" depart="28896.01" departPos="random">
        <ride from="-196519206#1" to="519913261#1" arrivalPos="15.00" lines="taxi" />
        <walk edges="519913261#1" arrivalPos="27.12" />
    </person>
    <person id="tp5938" depart="28898.22" departPos="random">
        <ride from="519913263#0" to="-96461182#0" arrivalPos="7.50" lines="taxi" />
        <walk edges="-96461182#0 1472605488#1 1472605488#0 1201541125 52959697#0 52959697#1 52959697#2 -52959697#3 56085325#0 -56085325#1 56085325#2 -56085325#3" arrivalPos="1.13" />
    </person>
    <person id="tp12093" depart="28899.51" departPos="random">
        <ride from="-170952324#0" to="25412019" arrivalPos="14.90" lines="taxi" />
        <walk edges="25412019 25412020#0 152516783#4 152516783#3 152516783#2 152516783#1" arrivalPos="42.37" />
    </person>
    <person id="tp12254" depart="28904.51" departPos="random">
        <ride from="89724876#1" to="-210208895" arrivalPos="18.71" lines="taxi" />
        <walk edges="-210208895" arrivalPos="16.69" />
    </person>
    <person id="tp10206" depart="28910.41" departPos="random">
        <ride from="1435131960#2" to="740109140" arrivalPos="20.48" lines="taxi" />
        <walk edges="740109140" arrivalPos="8.74" />
    </person>
    <person id="tp10039" depart="28914.43" departPos="random">
        <ride from="1158102646" to="-1113164891" arrivalPos="19.64" lines="taxi" />
        <walk edges="-1113164891 1041492060#1" arrivalPos="1.98" />
    </person>
    <person id="tp6052" depart="28915.31" departPos="random">
        <ride from="152336655#0" to="56240189#7" arrivalPos="7.50" lines="taxi" />
        <walk edges="56240189#7 -56240189#8 56240189#9 -973459742#0 -973459742#1 973459742#2 56084235" arrivalPos="41.17" />
    </person>
    <person id="tp7904" depart="28917.43" departPos="random">
        <ride from="903531446" to="-210208895" arrivalPos="18.71" lines="taxi" />
        <walk edges="-210208895" arrivalPos="48.59" />
    </person>
    <person id="tp52" depart="28921.78" departPos="random">
        <ride from="522706570#1" to="519913263#1" arrivalPos="15.00" lines="taxi" />
        <walk edges="519913263#1" arrivalPos="7.48" />
    </person>
    <person id="tp7614" depart="28924.70" departPos="random">
        <ride from="-916468197" to="-210208895" arrivalPos="18.71" lines="taxi" />
        <walk edges="-210208895" arrivalPos="11.24" />
    </person>
    <person id="tp3405" depart="28935.77" departPos="random">
        <ride from="-59637812#10" to="-894849663" arrivalPos="34.23" lines="taxi" />
        <walk edges="-894849663 -25418244#0" arrivalPos="2.35" />
    </person>
    <person id="tp6318" depart="28938.70" departPos="random">
        <ride from="1219872251" to="268146940#6" arrivalPos="7.77" lines="taxi" />
        <walk edges="268146940#6 268146940#5 -268146940#4 268146940#3 268146940#2 -268146940#1" arrivalPos="0.11" />
    </person>
    <person id="tp11972" depart="28945.21" departPos="random">
        <ride from="501346486" to="25412019" arrivalPos="14.90" lines="taxi" />
        <walk edges="25412019 25412020#0 152516783#4 152516783#3 152516783#2 152516783#1" arrivalPos="14.93" />
    </person>
    <person id="tp9791" depart="28945.46" departPos="random">
        <ride from="89726022" to="-1113164891" arrivalPos="19.64" lines="taxi" />
        <walk edges="-1113164891 1041492060#1" arrivalPos="12.80" />
    </person>
    <person id="tp7255" depart="28951.05" departPos="random">
        <ride from="-1435131955#1" to="25412019" arrivalPos="14.90" lines="taxi" />
        <walk edges="25412019 25412020#0 152516783#4 152516783#3 152516783#2 152516783#1" arrivalPos="5.51" />
    </person>
    <person id="tp10620" depart="28955.43" departPos="random">
        <ride from="14014143#1" to="740109140" arrivalPos="20.48" lines="taxi" />
        <walk edges="740109140" arrivalPos="45.15" />
    </person>
    <person id="tp10312" depart="28956.97" departPos="random">
        <ride from="-235361058#0" to="25412019" arrivalPos="14.90" lines="taxi" />
        <walk edges="25412019 25412020#0 152516783#4 152516783#3 152516783#2 152516783#1" arrivalPos="44.26" />
    </person>
    <person id="tp11670" depart="28960.07" departPos="random">
        <ride from="1428300394" to="-268146971#2" arrivalPos="37.39" lines="taxi" />
        <walk edges="-268146971#2 -268146971#3" arrivalPos="16.21" />
    </person>
    <person id="tp9995" depart="28960.62" departPos="random">
        <ride from="89724876#3" to="-210208895" arrivalPos="18.71" lines="taxi" />
        <walk edges="-210208895" arrivalPos="34.84" />
    </person>
    <person id="tp12871" depart="28963.23" departPos="random">
        <ride from="543256264#1" to="25412019" arrivalPos="14.90" lines="taxi" />
        <walk edges="25412019 25412020#0 152516783#4 152516783#3 152516783#2 152516783#1" arrivalPos="57.83" />
    </person>
    <person id="tp10790" depart="28966.80" departPos="random">
        <ride from="914487471#0" to="740109140" arrivalPos="20.48" lines="taxi" />
        <walk edges="740109140" arrivalPos="64.87" />
    </person>
    <person id="tp11745" depart="28968.18" departPos="random">
        <ride from="-1428300393#0" to="-210208895" arrivalPos="18.71" lines="taxi" />
        <walk edges="-210208895" arrivalPos="15.51" />
    </person>
    <person id="tp8637" depart="28968.75" departPos="random">
        <ride from="382202904#4" to="740109140" arrivalPos="20.48" lines="taxi" />
        <walk edges="740109140" arrivalPos="33.29" />
    </person>
    <person id="tp2381" depart="28987.96" departPos="random">
        <ride from="-1374473141#0" to="-894849663" arrivalPos="34.23" lines="taxi" />
        <walk edges="-894849663 -25418244#0" arrivalPos="8.12" />
    </person>
    <person id="tp7012" depart="28987.96" departPos="random">
        <ride from="30957914#2" to="25412019" arrivalPos="14.90" lines="taxi" />
        <walk edges="25412019 25412020#0 152516783#4 152516783#3 152516783#2 152516783#1" arrivalPos="10.42" />
    </person>
    <person id="tp13844" depart="28989.34" departPos="random">
        <ride from="-1068735336#3" to="740109140" arrivalPos="20.48" lines="taxi" />
        <walk edges="740109140" arrivalPos="64.53" />
    </person>
    <person id="tp13093" depart="28989.81" departPos="random">
        <ride from="188730894#0" to="-1113164891" arrivalPos="19.64" lines="taxi" />
        <walk edges="-1113164891 1041492060#1" arrivalPos="2.89" />
    </person>
    <person id="tp5878" depart="28993.33" departPos="random">
        <ride from="1161282679#1" to="-96461182#0" arrivalPos="7.50" lines="taxi" />
        <walk edges="-96461182#0 96461182#1 -96461182#2 -66846274 14014133#1 -25418326#0" arrivalPos="204.60" />
    </person>
    <person id="tp12523" depart="28996.79" departPos="random">
        <ride from="1068735332#3" to="-1113164891" arrivalPos="19.64" lines="taxi" />
        <walk edges="-1113164891 1041492060#1" arrivalPos="2.39" />
    </person>
    <person id="tp6144" depart="28996.96" departPos="random">
        <ride from="72562096#0" to="1068735330#1" arrivalPos="7.04" lines="taxi" />
        <walk edges="1068735330#1 30952483#0 -30952483#1 -30952483#2" arrivalPos="1.21" />
    </person>
    <person id="tp11705" depart="28999.96" departPos="random">
        <ride from="26167898#0" to="-1113164891" arrivalPos="19.64" lines="taxi" />
        <walk edges="-1113164891 1041492060#1" arrivalPos="4.40" />
    </person>
    <person id="tp10424" depart="29004.52" departPos="random">
        <ride from="1189801664" to="740109140" arrivalPos="20.48" lines="taxi" />
        <walk edges="740109140" arrivalPos="36.95" />
    </person>
    <person id="tp11035" depart="29007.39" departPos="random">
        <ride from="-170952322#1" to="25412019" arrivalPos="14.90" lines="taxi" />
        <walk edges="25412019 25412020#0 152516783#4 152516783#3 152516783#2 152516783#1" arrivalPos="57.40" />
    </person>
    <person id="tp210" depart="29010.76" departPos="random">
        <ride from="502426860#1" to="977972909" arrivalPos="68.09" lines="taxi" />
        <walk edges="977972909 -1136143571" arrivalPos="13.63" />
    </person>
    <person id="tp6374" depart="29017.24" departPos="random">
        <ride from="188727260#1" to="894576901#0" arrivalPos="26.60" lines="taxi" />
        <walk edges="894576901#0 -41595603#2 -819942940#1 -152522410#1 152390930#1" arrivalPos="2.55" />
    </person>
    <person id="tp10327" depart="29019.24" departPos="random">
        <ride from="-1219872249#1" to="-210208895" arrivalPos="18.71" lines="taxi" />
        <walk edges="-210208895" arrivalPos="49.99" />
    </person>
    <person id="tp5388" depart="29024.21" departPos="random">
        <ride from="19738795" to="1050853710" arrivalPos="26.41" lines="taxi" />
        <walk edges="1050853710 -1050853709#1" arrivalPos="1.02" />
    </person>
    <person id="tp1509" depart="29024.98" departPos="random">
        <ride from="-76129128#1" to="-894849663" arrivalPos="34.23" lines="taxi" />
        <walk edges="-894849663 -25418244#0" arrivalPos="4.74" />
    </person>
    <person id="tp1878" depart="29028.86" departPos="random">
        <ride from="-208825827#2" to="-894849663" arrivalPos="34.23" lines="taxi" />
        <walk edges="-894849663 -25418244#0" arrivalPos="1.20" />
    </person>
    <person id="tp12242" depart="29033.19" departPos="random">
        <ride from="-204540721#2" to="-268146971#2" arrivalPos="37.39" lines="taxi" />
        <walk edges="-268146971#2 -268146971#3" arrivalPos="15.42" />
    </person>
    <person id="tp13514" depart="29034.59" departPos="random">
        <ride from="30984018#3" to="-210208895" arrivalPos="18.71" lines="taxi" />
        <walk edges="-210208895" arrivalPos="10.44" />
    </person>
    <person id="tp9362" depart="29041.22" departPos="random">
        <ride from="127791073" to="25412019" arrivalPos="14.90" lines="taxi" />
        <walk edges="25412019 25412020#0 152516783#4 152516783#3 152516783#2 152516783#1" arrivalPos="11.17" />
    </person>
    <person id="tp4925" depart="29064.99" departPos="random">
        <ride from="-175833044#1" to="-894849663" arrivalPos="34.23" lines="taxi" />
        <walk edges="-894849663 -25418244#0" arrivalPos="0.66" />
    </person>
    <person id="tp9441" depart="29067.64" departPos="random">
        <ride from="-1113452968" to="-210208895" arrivalPos="18.71" lines="taxi" />
        <walk edges="-210208895" arrivalPos="4.03" />
    </person>
    <person id="tp13941" depart="29068.10" departPos="random">
        <ride from="196519206#1" to="-1113164891" arrivalPos="19.64" lines="taxi" />
        <walk edges="-1113164891 1041492060#1" arrivalPos="11.38" />
    </person>
    <person id="tp559" depart="29078.45" departPos="random">
        <ride from="-208825827#3" to="76091869#1" arrivalPos="12.69" lines="taxi" />
        <walk edges="76091869#1 -209788013" arrivalPos="188.04" />
    </person>
    <person id="tp4865" depart="29082.46" departPos="random">
        <ride from="208825827#2" to="-894849663" arrivalPos="34.23" lines="taxi" />
        <walk edges="-894849663 -25418244#0" arrivalPos="4.06" />
    </person>
    <person id="tp962" depart="29084.35" departPos="random">
        <ride from="1418170811" to="-894849663" arrivalPos="34.23" lines="taxi" />
        <walk edges="-894849663 -25418244#0" arrivalPos="2.97" />
    </person>
    <person id="tp6558" depart="29084.80" departPos="random">
        <ride from="-196750043#0" to="519913261#1" arrivalPos="15.00" lines="taxi" />
        <walk edges="519913261#1" arrivalPos="19.24" />
    </person>
    <person id="tp13776" depart="29093.72" departPos="random">
        <ride from="1188913354" to="740109140" arrivalPos="20.48" lines="taxi" />
        <walk edges="740109140" arrivalPos="28.60" />
    </person>
    <person id="tp11648" depart="29095.97" departPos="random">
        <ride from="127791073" to="25412019" arrivalPos="14.90" lines="taxi" />
        <walk edges="25412019 25412020#0 152516783#4 152516783#3 152516783#2 152516783#1" arrivalPos="38.04" />
    </person>
    <person id="tp874" depart="29102.63" departPos="random">
        <ride from="-72561717#1" to="-894849663" arrivalPos="34.23" lines="taxi" />
        <walk edges="-894849663 -25418244#0" arrivalPos="5.45" />
    </person>
    <person id="tp13241" depart="29116.02" departPos="random">
        <ride from="-196750043#2" to="25412019" arrivalPos="14.90" lines="taxi" />
        <walk edges="25412019 25412020#0 152516783#4 152516783#3 152516783#2 152516783#1" arrivalPos="31.72" />
    </person>
    <person id="tp6080" depart="29117.44" departPos="random">
        <ride from="-120840712#1" to="-187633169#3" arrivalPos="7.50" lines="taxi" />
        <walk edges="-187633169#3 187633169#3" arrivalPos="49.76" />
    </person>
    <person id="tp13147" depart="29120.76" departPos="random">
        <ride from="-154770319#3" to="25412019" arrivalPos="14.90" lines="taxi" />
        <walk edges="25412019 25412020#0 152516783#4 152516783#3 152516783#2 152516783#1" arrivalPos="36.18" />
    </person>
    <person id="tp13343" depart="29122.76" departPos="random">
        <ride from="26167898#0" to="25412019" arrivalPos="14.90" lines="taxi" />
        <walk edges="25412019 25412020#0 152516783#4 152516783#3 152516783#2 152516783#1" arrivalPos="25.80" />
    </person>
    <person id="tp84" depart="29122.82" departPos="random">
        <ride from="-391657350#1" to="977972909" arrivalPos="68.09" lines="taxi" />
        <walk edges="977972909 -1136143571" arrivalPos="74.31" />
    </person>
    <person id="tp8510" depart="29127.25" departPos="random">
        <ride from="-1113054108#0" to="740109140" arrivalPos="20.48" lines="taxi" />
        <walk edges="740109140" arrivalPos="66.01" />
    </person>
    <person id="tp8026" depart="29129.12" departPos="random">
        <ride from="-30984018#2" to="-210208895" arrivalPos="18.71" lines="taxi" />
        <walk edges="-210208895" arrivalPos="1.20" />
    </person>
    <person id="tp2277" depart="29129.76" departPos="random">
        <ride from="-208825827#0" to="-894849663" arrivalPos="34.23" lines="taxi" />
        <walk edges="-894849663 -25418244#0" arrivalPos="4.24" />
    </person>
    <person id="tp12892" depart="29133.57" departPos="random">
        <ride from="-196519206#1" to="-210208895" arrivalPos="18.71" lines="taxi" />
        <walk edges="-210208895" arrivalPos="5.28" />
    </person>
    <person id="tp8500" depart="29134.65" departPos="random">
        <ride from="915198664" to="-210208895" arrivalPos="18.71" lines="taxi" />
        <walk edges="-210208895" arrivalPos="44.11" />
    </person>
    <person id="tp11024" depart="29139.99" departPos="random">
        <ride from="-1161282678#0" to="740109140" arrivalPos="20.48" lines="taxi" />
        <walk edges="740109140" arrivalPos="42.25" />
    </person>
    <person id="tp526" depart="29140.80" departPos="random">
        <ride from="-58413640#0" to="1068735330#1" arrivalPos="7.04" lines="taxi" />
        <walk edges="1068735330#1 30952483#0 -30952483#1 30952490#0 -30952523#0 -30952523#1 30952523#2 30952523#3" arrivalPos="33.01" />
    </person>
    <person id="tp2282" depart="29148.12" departPos="random">
        <ride from="-175833044#0" to="-894849663" arrivalPos="34.23" lines="taxi" />
        <walk edges="-894849663 -25418244#0" arrivalPos="6.89" />
    </person>
    <person id="tp13199" depart="29149.67" departPos="random">
        <ride from="-191253662#6" to="-268146971#2" arrivalPos="37.39" lines="taxi" />
        <walk edges="-268146971#2 -268146971#3" arrivalPos="11.56" />
    </person>
    <person id="tp287" depart="29150.79" departPos="random">
        <ride from="56191171" to="-1083351550#0" arrivalPos="16.69" lines="taxi" />
        <walk edges="-1083351550#0 -1083351550#1 1083276371#0 -1083276371#1 -1083276371#2 -120840219#0" arrivalPos="340.06" />
    </person>
    <person id="tp2243" depart="29152.80" departPos="random">
        <ride from="-72561717#0" to="-894849663" arrivalPos="34.23" lines="taxi" />
        <walk edges="-894849663 -25418244#0" arrivalPos="6.38" />
    </person>
    <person id="tp7815" depart="29153.51" departPos="random">
        <ride from="30984018#5" to="25412019" arrivalPos="14.90" lines="taxi" />
        <walk edges="25412019 25412020#0 152516783#4 152516783#3 152516783#2 152516783#1" arrivalPos="54.05" />
    </person>
    <person id="tp7901" depart="29155.55" departPos="random">
        <ride from="-268776830#0" to="740109140" arrivalPos="20.48" lines="taxi" />
        <walk edges="740109140" arrivalPos="38.77" />
    </person>
    <person id="tp13356" depart="29155.70" departPos="random">
        <ride from="-26167678#0" to="-210208895" arrivalPos="18.71" lines="taxi" />
        <walk edges="-210208895" arrivalPos="48.94" />
    </person>
    <person id="tp11966" depart="29157.74" departPos="random">
        <ride from="382202903#3" to="-268146971#2" arrivalPos="37.39" lines="taxi" />
        <walk edges="-268146971#2 -268146971#3" arrivalPos="8.06" />
    </person>
    <person id="tp7388" depart="29161.24" departPos="random">
        <ride from="30984018#3" to="25412019" arrivalPos="14.90" lines="taxi" />
        <walk edges="25412019 25412020#0 152516783#4 152516783#3 152516783#2 152516783#1" arrivalPos="25.43" />
    </person>
    <person id="tp8373" depart="29161.87" departPos="random">
        <ride from="-392160848" to="740109140" arrivalPos="20.48" lines="taxi" />
        <walk edges="740109140" arrivalPos="23.17" />
    </person>
    <person id="tp12214" depart="29168.82" departPos="random">
        <ride from="1115015078#2" to="-268146971#2" arrivalPos="37.39" lines="taxi" />
        <walk edges="-268146971#2 -268146971#3" arrivalPos="19.02" />
    </person>
    <person id="tp5718" depart="29169.76" departPos="random">
        <ride from="96461184#0" to="890169725#1" arrivalPos="3.09" lines="taxi" />
        <walk edges="890169725#1 -890169723#0 -890169723#1 890169723#2 -1036672006#0 -1036672006#1 391653985#1 1036672007 1036672004#0 -1036672004#1 391653990#0" arrivalPos="4.06" />
    </person>
    <person id="tp13021" depart="29175.50" departPos="random">
        <ride from="-25303412" to="-210208895" arrivalPos="18.71" lines="taxi" />
        <walk edges="-210208895" arrivalPos="23.49" />
    </person>
    <person id="tp5518" depart="29176.33" departPos="random">
        <ride from="-612250570#5" to="1050853710" arrivalPos="26.41" lines="taxi" />
        <walk edges="1050853710 -1050853709#1" arrivalPos="2.14" />
    </person>
    <person id="tp5214" depart="29177.40" departPos="random">
        <ride from="1068941219#3" to="-430248865#3" arrivalPos="83.53" lines="taxi" />
        <walk edges="-430248865#3 430248865#2" arrivalPos="70.59" />
    </person>
    <person id="tp9781" depart="29177.77" departPos="random">
        <ride from="-88717666#4" to="-268146971#2" arrivalPos="37.39" lines="taxi" />
        <walk edges="-268146971#2 -268146971#3" arrivalPos="7.65" />
    </person>
    <person id="tp7080" depart="29178.65" departPos="random">
        <ride from="-819945220#1" to="-1113164891" arrivalPos="19.64" lines="taxi" />
        <walk edges="-1113164891 1041492060#1" arrivalPos="11.23" />
    </person>
    <person id="tp5642" depart="29181.38" departPos="random">
        <ride from="-1374473141#3" to="1050853710" arrivalPos="26.41" lines="taxi" />
        <walk edges="1050853710 -1050853709#1" arrivalPos="0.40" />
    </person>
    <person id="tp302" depart="29182.67" departPos="random">
        <ride from="696033777#1" to="1426892794#3" arrivalPos="11.14" lines="taxi" />
        <walk edges="1426892794#3 1426892796 1426892784 1426892791 1426892783 1426892797 -1024855417" arrivalPos="19.13" />
    </person>
    <person id="tp4903" depart="29193.90" departPos="random">
        <ride from="-1374474693" to="-894849663" arrivalPos="34.23" lines="taxi" />
        <walk edges="-894849663 -25418244#0" arrivalPos="1.97" />
    </person>
    <person id="tp5221" depart="29194.97" departPos="random">
        <ride from="-187198083#0" to="1426892794#3" arrivalPos="11.14" lines="taxi" />
        <walk edges="1426892794#3 71759543#0 -71759543#1 71759543#2 -71759543#3 71759543#4 -71759543#5 -71759543#6 -71759543#7 520990193#3" arrivalPos="0.18" />
    </person>
    <person id="tp9215" depart="29196.56" departPos="random">
        <ride from="888359128#5" to="-268146971#2" arrivalPos="37.39" lines="taxi" />
        <walk edges="-268146971#2 -268146971#3" arrivalPos="10.10" />
    </person>
    <person id="tp7020" depart="29197.77" departPos="random">
        <ride from="96461180#3" to="-1113164891" arrivalPos="19.64" lines="taxi" />
        <walk edges="-1113164891 1041492060#1" arrivalPos="7.57" />
    </person>
    <person id="tp6125" depart="29209.72" departPos="random">
        <ride from="152331922#0" to="25418590#1" arrivalPos="2.00" lines="taxi" />
        <walk edges="25418590#1 25418590#0" arrivalPos="1.33" />
    </person>
    <person id="tp8990" depart="29210.52" departPos="random">
        <ride from="-88717666#2" to="-268146971#2" arrivalPos="37.39" lines="taxi" />
        <walk edges="-268146971#2 -268146971#3" arrivalPos="10.62" />
    </person>
    <person id="tp3829" depart="29212.11" departPos="random">
        <ride from="56240189#3" to="-894849663" arrivalPos="34.23" lines="taxi" />
        <walk edges="-894849663 -25418244#0" arrivalPos="9.45" />
    </person>
    <person id="tp9708" depart="29213.82" departPos="random">
        <ride from="268146971#1" to="740109140" arrivalPos="20.48" lines="taxi" />
        <walk edges="740109140" arrivalPos="66.11" />
    </person>
    <person id="tp9680" depart="29222.01" departPos="random">
        <ride from="25303489#0" to="740109140" arrivalPos="20.48" lines="taxi" />
        <walk edges="740109140" arrivalPos="57.14" />
    </person>
    <person id="tp5481" depart="29228.19" departPos="random">
        <ride from="30952490#1" to="1050853710" arrivalPos="26.41" lines="taxi" />