<routes xmlns:xsi="http://www.w3.org/2001/XMLSchema-instance" xsi:noNamespaceSchemaLocation="http://sumo.dlr.de/xsd/routes_file.xsd">
    <person id="tp32" depart="28958.69" departPos="random">
        <walk edges="185833040#1" busStop="1.TA.92-20-E-j24-1.5.H.5" /> 
        <ride from="185833040#1" to="890169725#1" arrivalPos="3.09" lines="taxi" />
        <walk edges="890169725#1 -890169725#0 890169724#2" arrivalPos="24.95" />
    </person>
    <person id="tp122" depart="28979.52" departPos="random">
        <walk edges="-210208895" busStop="vbs_ski_corviglia_valley_chantarella" />
        <ride from="-210208895" to="25303488#4" arrivalPos="38.05" lines="taxi" />
        <walk edges="25303488#4 1068735334 69347933#0 -69347933#1 -188727781#1 -188727781#0" arrivalPos="105.14" />
    </person>
    <person id="tp83" depart="29197.95" departPos="random">
        <walk edges="-30957910#1 30957910#0 -977370315 30957908#1 915198678#0" busStop="158.TA.96-260-1-j24-1.72.H.33" /> 
        <ride from="915198678#0" to="-96461182#0" arrivalPos="7.50" lines="taxi" />
        <walk edges="-96461182#0 96461182#1" arrivalPos="1.99" />
    </person>
    <person id="tp65" depart="29217.29" departPos="random">
        <walk edges="-268152262#5 268152262#4 268152262#3 -268152262#2 268152262#1 -1115015079#3 1115015079#2 -210208895" busStop="vbs_ski_corviglia_valley_chantarella" />
        <ride from="-210208895" to="-69218976#0" arrivalPos="93.33" lines="taxi" />
        <walk edges="-69218976#0 -1441870936#7 1441870936#6 1441870936#5 1441870936#4 1441870936#3 1441870936#2 1441870936#1 -320549344 -695907287#1 695907287#0" arrivalPos="16.12" />
    </person>
    <person id="tp26" depart="29784.39" departPos="random">
        <walk edges="59637812#3 -59637812#2 59637812#1 59637812#0 -58413640#0 -209755663#0 209755663#2 209755663#3" busStop="1136.TA.92-10-J-j24-1.22.R.5" /> 
        <ride from="209755663#3" to="187198083#7" arrivalPos="10.67" lines="taxi" />
        <walk edges="187198083#7 31061889#0 31061889#2 -31061889#3 -31061889#4 186141915#0 -186141915#1 1430507283 -645951511#0 1085798451 1068941219#1" arrivalPos="36.60" />
    </person>
    <person id="tp129" depart="29903.27" departPos="random">
        <walk edges="1428300393#2 -1428300393#2 69347933#1 69347933#0 1068735334 -25303488#4" busStop="1286.TA.92-2-L-j24-1.22.R.4" /> 
        <ride from="-25303488#4" to="519913261#1" arrivalPos="15.00" lines="taxi" />
        <walk edges="519913261#1" arrivalPos="1.24" />
    </person>
    <person id="tp138" depart="30205.95" departPos="random">
        <walk edges="72562019#0 30952515#0" busStop="459.TA.92-10-J-j24-1.71.H.20" /> 
        <ride from="30952515#0" to="519913265#1" arrivalPos="10.00" lines="taxi" />
        <walk edges="519913265#1" arrivalPos="20.38" />
    </person>
    <person id="tp109" depart="30649.67" departPos="random">
        <walk edges="-894841757 -1435131955#2 1435131955#1 72562019#4 72562019#3 72562019#2 -72562019#1 72562019#0 30952515#0" busStop="459.TA.92-10-J-j24-1.71.H.20" /> 
        <ride from="30952515#0" to="-187633169#3" arrivalPos="7.50" lines="taxi" />
        <walk edges="-187633169#3 187633169#3" arrivalPos="14.92" />
    </person>
    <person id="tp69" depart="30891.43" departPos="random">
        <walk edges="30952515#1 -30952515#0" busStop="2386.TA.92-1-N-j24-1.93.R.1" /> 
        <ride from="-30952515#0" to="62065386" arrivalPos="7.50" lines="taxi" />
        <walk edges="62065386 120839520" arrivalPos="11.26" />
    </person>
    <person id="tp63" depart="30915.84" departPos="random">
        <walk edges="-37804543#2 37804543#3 -37804543#4 -1161282679#1 -1161282679#0 -268146940#6" busStop="262.TA.92-10-J-j24-1.4.H.9" /> 
        <ride from="-268146940#6" to="315159496#1" arrivalPos="7.50" lines="taxi" />
        <walk edges="315159496#1 315159496#2 -315159496#3" arrivalPos="7.10" />
    </person>
    <person id="tp153" depart="30962.87" departPos="random">
        <walk edges="-188731354#1 -1428300393#0 1188934794 188730896#1 188730896#0 69347933#1 69347933#0 1068735334 -25303488#4" busStop="1286.TA.92-2-L-j24-1.22.R.4" /> 
        <ride from="-25303488#4" to="519913261#1" arrivalPos="15.00" lines="taxi" />
        <walk edges="519913261#1" arrivalPos="0.17" />
    </person>
    <person id="tp89" depart="31346.34" departPos="random">
        <walk edges="-25303412 -89726026#1 -89726026#0 51814854 -30957915" busStop="1679.TA.92-1-N-j24-1.90.R.3" /> 
        <ride from="-30957915" to="56240189#0" arrivalPos="27.49" lines="taxi" />
        <walk edges="56240189#0 -188063062" arrivalPos="12.82" />
    </person>
    <person id="tp156" depart="31417.42" departPos="random">
        <walk edges="1005170350 152517715#3" busStop="1679.TA.92-1-N-j24-1.90.R.5" /> 
        <ride from="152517715#3" to="519913261#1" arrivalPos="15.00" lines="taxi" />
        <walk edges="519913261#1" arrivalPos="13.22" />
    </person>
    <person id="tp146" depart="32072.04" departPos="random">
        <walk edges="-96461180#5" busStop="1128.TA.92-9-H-j24-1.12.R.0" /> 
        <ride from="-96461180#5" to="519913257#1" arrivalPos="15.00" lines="taxi" />
        <walk edges="519913257#1" arrivalPos="12.94" />
    </person>
    <person id="tp85" depart="32165.36" departPos="random">
        <walk edges="-89726026#1 -89726026#0 51814854 -30957915" busStop="1679.TA.92-1-N-j24-1.90.R.3" /> 
        <ride from="-30957915" to="56240189#0" arrivalPos="27.49" lines="taxi" />
        <walk edges="56240189#0 1418170811 72561717#0 -72561717#1 72561717#2" arrivalPos="217.17" />
    </person>
    <person id="tp37" depart="32180.65" departPos="random">
        <walk edges="612250570#1 612250570#0 1068941218 -1068941219#9 -1068941219#8 -1068941219#7" busStop="158.TA.96-260-1-j24-1.72.H.31" /> 
        <ride from="-1068941219#7" to="1472605488#2" arrivalPos="18.43" lines="taxi" />
        <walk edges="1472605488#2" arrivalPos="7.56" />
    </person>
    <person id="tp94" depart="32367.26" departPos="random">
        <walk edges="1158102646 175791806#0 -175791806#1 -170940321#0" busStop="1679.TA.92-1-N-j24-1.90.R.1" /> 
        <ride from="-170940321#0" to="56240189#0" arrivalPos="27.49" lines="taxi" />
        <walk edges="56240189#0 -188063062" arrivalPos="1.15" />
    </person>
    <person id="tp106" depart="32394.65" departPos="random">
        <walk edges="-154770319#1 154770319#1 154770319#0 -25303487#4" busStop="1008.TA.92-1-N-j24-1.88.H.19" /> 
        <ride from="-25303487#4" to="1068941219#7" arrivalPos="18.33" lines="taxi" />
        <walk edges="1068941219#7 -1068941219#8" arrivalPos="33.63" />
    </person>
    <person id="tp136" depart="32421.41" departPos="random">
        <walk edges="-543256264#1 -543256264#0 -1435131960#2 1435131960#1 -268146971#4 -268146971#3 -268146971#2" busStop="2386.TA.92-1-N-j24-1.93.R.3" /> 
        <ride from="-268146971#2" to="519913257#1" arrivalPos="15.00" lines="taxi" />
        <walk edges="519913257#1" arrivalPos="9.21" />
    </person>
    <person id="tp145" depart="32561.15" departPos="random">
        <walk edges="152336656#0 391952926#1 391952926#2 -391952926#3 -39830434#2 39830434#1 39830434#0 268146940#2 -578147406 1005048062#1 -1005048061#0 1005048061#1 -1005048061#2 -152522410#1 819942940#1 819942940#0 -1005052428#2 1005052428#1 -41595601#5 41595601#4 41595601#3 -41595601#2 41595601#0 819945210#0 -1467922383 819945211 -819942944#4 819942944#3 819942944#2 -152520535 1068735337 819942945#2 -819942945#0 1068735342#1 1068735342#0 -47578286 120840712#0 903531446 519913265#0 519913265#1" arrivalPos="18.74" />
    </person>
    <person id="tp77" depart="32681.32" departPos="random">
        <walk edges="25366042#2 -25366042#1 25366042#0 -268146940#6" busStop="262.TA.92-10-J-j24-1.4.H.9" /> 
        <ride from="-268146940#6" to="-96461182#0" arrivalPos="7.50" lines="taxi" />
        <walk edges="-96461182#0 96461182#1 -96461182#2 -66846274 14014133#2 14014133#3 -56240279#4 56240279#2 516876125" arrivalPos="9.82" />
    </person>
    <person id="tp151" depart="33007.36" departPos="random">
        <walk edges="1113136564#1 1113136564#0" busStop="1.TA.92-4-Q-j24-1.7.R.12" /> 
        <ride from="1113136564#0" to="519913257#1" arrivalPos="15.00" lines="taxi" />
        <walk edges="519913257#1" arrivalPos="14.68" />
    </person>
    <person id="tp104" depart="33017.02" departPos="random">
        <walk edges="47578286 -47578286 120840712#0 903531446 519913265#0 519913265#1" busStop="vbs_St_Moritz_extra_cap" />
        <ride from="519913265#1" to="185833040#1" arrivalPos="15.53" lines="taxi" />
        <walk edges="185833040#1 185833040#2 664380228#1 -1219863760#1 1219863759 -209788015 1136239035#1 1136239035#0 182095936#1 182095936#0 -209788024#1 209788024#0 -182098926" arrivalPos="9.59" />
    </person>
    <person id="tp71" depart="33377.06" departPos="random">
        <walk edges="30952527#1 -30952527#1 -72562019#1 72562019#0 30952515#0" busStop="459.TA.92-10-J-j24-1.71.H.20" /> 
        <ride from="30952515#0" to="430248865#1" arrivalPos="7.50" lines="taxi" />
        <walk edges="430248865#1 1069366697" arrivalPos="24.46" />
    </person>
    <person id="tp96" depart="33553.28" departPos="random">
        <walk edges="-888359129#0 -888359129#1 1189801663 916015460#0 916015460#1 89724876#3 72562096#0 916468197 519913257#0 519913257#1" busStop="1.TA.92-4-Q-j24-1.7.R.13" /> 
        <ride from="519913257#1" to="-894849663" arrivalPos="34.23" lines="taxi" />
        <walk edges="-894849663 894849663" arrivalPos="77.15" />
    </person>
    <person id="tp135" depart="33562.62" departPos="random">
        <walk edges="30984020 -30984018#3 -30984018#2 -30984018#1 30984018#0 30957906 1068735330#7" busStop="2386.TA.92-1-N-j24-1.93.R.0" /> 
        <ride from="1068735330#7" to="519913257#1" arrivalPos="15.00" lines="taxi" />
        <walk edges="519913257#1" arrivalPos="23.59" />
    </person>
    <person id="tp133" depart="33753.66" departPos="random">
        <walk edges="915198665#1 915198670 915198669 769993301#0 19724261 170952324#0 170952324#1" busStop="1679.TA.92-1-N-j24-1.90.R.0" /> 
        <ride from="170952324#1" to="519913257#1" arrivalPos="15.00" lines="taxi" />
        <walk edges="519913257#1" arrivalPos="25.40" />
    </person>
    <person id="tp35" depart="33784.81" departPos="random">
        <walk edges="116511577#0 187198083#3" busStop="1.TA.92-20-E-j24-1.5.H.2" /> 
        <ride from="187198083#3" to="209755663#3" arrivalPos="2.55" lines="taxi" />
        <walk edges="209755663#3 209755663#2 -209755663#0 1317098557 -58413641 -150335026#4 150335026#3 150335026#2" arrivalPos="17.09" />
    </person>
    <person id="tp34" depart="33827.64" departPos="random">
        <walk edges="116507539#1 -116507539#0 1136237777 76091870#1 76091870#0 1136237774 76091869#0 -209788013" busStop="459.TA.92-10-J-j24-1.71.H.27" /> 
        <ride from="-209788013" to="-633986854#1" arrivalPos="7.26" lines="taxi" />
        <walk edges="-633986854#1 -68115526#1 68115526#0 -68115532" arrivalPos="38.08" />
    </person>
    <person id="tp86" depart="34080.92" departPos="random">
        <walk edges="-120840712#2 -120840712#3 -47578286 120840712#0 903531446 519913265#0 519913265#1" busStop="vbs_St_Moritz_extra_cap" />
        <ride from="519913265#1" to="208825826" arrivalPos="41.20" lines="taxi" />
        <walk edges="208825826 208825827#0" arrivalPos="25.36" />
    </person>
    <person id="tp84" depart="34261.17" departPos="random">
        <walk edges="30050433#0 -30050433#1 -30050433#2" busStop="1008.TA.92-1-N-j24-1.88.H.21" /> 
        <ride from="-30050433#2" to="209755663#3" arrivalPos="2.55" lines="taxi" />
        <walk edges="209755663#3 209755663#2 -209755663#0 1317098557 59637812#0 59637812#1 -59637812#2 -59637812#3 59637812#4 -59637812#5 59637812#7 -59637812#8 59637812#9 -59637812#10 -1086010084 -1086010083 175833044#1" arrivalPos="0.46" />
    </person>
    <person id="tp92" depart="34281.72" departPos="random">
        <walk edges="152516783#1 152516783#2 152516783#3 152516783#4 25412020#0 25412019" busStop="262.TA.92-10-J-j24-1.4.H.10" /> 
        <ride from="25412019" to="-96461182#0" arrivalPos="7.50" lines="taxi" />
        <walk edges="-96461182#0 96461182#1 -96461182#2 -66846274 14014133#2 14014133#3 -56240279#4" arrivalPos="6.44" />
    </person>
    <person id="tp30" depart="34296.51" departPos="random">
        <walk edges="-198123925#1 198123925#1 198123925#0 426408073 -175833043 -175833047#2 -175833047#1 175833047#0 175833041 175833044#0 -175833044#1 -1086010083 -1086010084 -59637812#10 59637812#9 -59637812#8 59637812#7 -59637812#5 59637812#4 -59637812#3 -59637812#2 59637812#1 59637812#0 -58413640#0 -209755663#0 209755663#2 209755663#3" busStop="1136.TA.92-10-J-j24-1.22.R.5" /> 
        <ride from="209755663#3" to="30957907" arrivalPos="553.86" lines="taxi" />
        <walk edges="30957907 26167898#0 26167898#1 -26167908#1 26167908#3 26167908#4 235361058#0 235361058#1" arrivalPos="104.89" />
    </person>
    <person id="tp11" depart="34366.98" departPos="random">
        <walk edges="-256959704#0 256959704#2" busStop="1822.TA.92-2-L-j24-1.33.R.0" /> 
        <ride from="256959704#2" to="1426892794#3" arrivalPos="11.14" lines="taxi" />
        <walk edges="1426892794#3 391649038#2" arrivalPos="3.80" />
    </person>
    <person id="tp90" depart="34406.46" departPos="random">
        <walk edges="196749915#2 -196749915#1 196749915#0 188730896#3 -188730896#4 188730896#5 -188730896#6 740109140" busStop="vbs_ski_corviglia_valley_chasellas" />
        <ride from="740109140" to="209755663#3" arrivalPos="2.55" lines="taxi" />
        <walk edges="209755663#3 209755663#2 -209755663#0 1317098557 -58413641 -150335026#4 150335026#3 -150335026#2 150335026#1 150335026#0" arrivalPos="38.59" />
    </person>
    <person id="tp36" depart="34442.72" departPos="random">
        <walk edges="30957918#1 -30957918#0 25418590#1" busStop="10.TA.92-20-E-j24-1.1.H.10" /> 
        <ride from="25418590#1" to="209755663#3" arrivalPos="2.55" lines="taxi" />
        <walk edges="209755663#3 209755663#2 -209755663#0 1317098557 59637812#0 59637812#1 -59637812#2 -59637812#3 59637812#4 -59637812#5 59637812#7 -59637812#8 59637812#9 -59637812#10 -1086010084 -1086010083 -175833044#1 175833044#0 175833041 175833047#0 -175833047#1 -175833047#2 -175833043 -426408073 198123925#0 198123925#1" arrivalPos="3.18" />
    </person>
    <person id="tp165" depart="34515.08" departPos="random">
        <walk edges="-268146971#0 -268146971#1 -268146971#2" busStop="2386.TA.92-1-N-j24-1.93.R.3" /> 
        <ride from="-268146971#2" to="519913265#1" arrivalPos="10.00" lines="taxi" />
        <walk edges="519913265#1 519913265#0 903531446" arrivalPos="14.82" />
    </person>
    <person id="tp80" depart="35367.72" departPos="random">
        <walk edges="888359128#4 888359128#3 268776830#0 -268776830#1 1189801663 916015460#0 916015460#1 89724876#3 72562096#0 916468197 519913257#0 519913257#1" busStop="1.TA.92-4-Q-j24-1.7.R.13" /> 
        <ride from="519913257#1" to="-96461182#0" arrivalPos="7.50" lines="taxi" />
        <walk edges="-96461182#0 1472605488#1 1472605488#0 1201541125 52959697#0 52959697#1 52959697#2 -52959697#3 -256959700#0 -256959700#2 -256959703#2" arrivalPos="6.90" />
    </person>
    <person id="tp40" depart="35397.24" departPos="random">
        <walk edges="-30957918#3 30957918#2 30957918#1 -30957918#0 25418590#1" busStop="10.TA.92-20-E-j24-1.1.H.10" /> 
        <ride from="25418590#1" to="-209788013" arrivalPos="516.88" lines="taxi" />
        <walk edges="-209788013 76091869#0 1136237774 -76091870#0 -1041495497" arrivalPos="4.89" />
    </person>
    <person id="tp0" depart="35482.39" departPos="random">
        <walk edges="-1083277954 62065386" busStop="1.TA.96-290-3-j24-1.1.H.0" /> 
        <ride from="62065386" to="430248865#10" arrivalPos="19.03" lines="taxi" />
        <walk edges="430248865#10 430248865#9 -430248865#8 430248865#7 1054486961#0 -1054486961#1 1054486961#2" arrivalPos="53.43" />
    </person>
    <person id="tp75" depart="35846.06" departPos="random">
        <walk edges="88717666#4 -88717666#3 88717666#2 88717666#1 96461180#5" busStop="114.TA.92-9-H-j24-1.10.H.8" /> 
        <ride from="96461180#5" to="-894905824" arrivalPos="13.28" lines="taxi" />
        <walk edges="-894905824 1068735318#0 -1068735318#1 -1068735318#2 -256959702#0 -256959702#1 256959702#2" arrivalPos="5.43" />
    </person>
    <person id="tp64" depart="35863.86" departPos="random">
        <walk edges="-268146971#2" busStop="2386.TA.92-1-N-j24-1.93.R.3" /> 
        <ride from="-268146971#2" to="977972909" arrivalPos="68.09" lines="taxi" />
        <walk edges="977972909 -315159485#0 -315159485#1 315159485#2" arrivalPos="3.86" />
    </person>
    <person id="tp267" depart="36002.83" departPos="random">
        <walk edges="19724261 170952324#0 170952324#1" busStop="1679.TA.92-1-N-j24-1.90.R.0" /> 
        <ride from="170952324#1" to="519913263#1" arrivalPos="15.00" lines="taxi" />
        <walk edges="519913263#1" arrivalPos="7.48" />
    </person>
    <person id="tp111" depart="36066.73" departPos="random">
        <walk edges="-894841758 235361066 -1435131955#2 1435131955#1 72562019#4 72562019#3 72562019#2 -72562019#1 72562019#0 30952515#0" busStop="459.TA.92-10-J-j24-1.71.H.20" /> 
        <ride from="30952515#0" to="25418588#1" arrivalPos="7.50" lines="taxi" />
        <walk edges="25418588#1" arrivalPos="27.72" />
    </person>
    <person id="tp174" depart="36088.60" departPos="random">
        <walk edges="-56240189#4" busStop="647.TA.92-2-L-j24-1.12.H.20" /> 
        <ride from="-56240189#4" to="519913265#1" arrivalPos="10.00" lines="taxi" />
        <walk edges="519913265#1" arrivalPos="4.61" />
    </person>
    <person id="tp240" depart="36202.95" departPos="random">
        <walk edges="-72562019#2 72562019#2 -72562019#1 72562019#0 30952515#0" busStop="459.TA.92-10-J-j24-1.71.H.20" /> 
        <ride from="30952515#0" to="519913261#1" arrivalPos="15.00" lines="taxi" />
        <walk edges="519913261#1" arrivalPos="16.21" />
    </person>
    <person id="tp33" depart="36262.18" departPos="random">
        <walk edges="-182550686#0 -182550686#1 18888058 -1068735330#0 -1068735330#1" busStop="459.TA.92-10-J-j24-1.71.H.21" /> 
        <ride from="-1068735330#1" to="1426892794#3" arrivalPos="11.14" lines="taxi" />
        <walk edges="1426892794#3 71759543#0 -71759543#1 71759543#2 -71759543#3 522706570#0 -522706566#1 522706566#0 -522706560#1 522703215#2" arrivalPos="0.05" />
    </person>
    <person id="tp327" depart="36327.86" departPos="random">
        <walk edges="-30957910#0 30957910#0 -977370315 30957908#1 915198678#0" busStop="158.TA.96-260-1-j24-1.72.H.33" /> 
        <ride from="915198678#0" to="519913265#1" arrivalPos="10.00" lines="taxi" />
        <walk edges="519913265#1" arrivalPos="22.26" />
    </person>
    <person id="tp302" depart="36420.68" departPos="random">
        <walk edges="1188913354 30984005 1068735330#7" busStop="2386.TA.92-1-N-j24-1.93.R.0" /> 
        <ride from="1068735330#7" to="519913263#1" arrivalPos="15.00" lines="taxi" />
        <walk edges="519913263#1" arrivalPos="2.52" />
    </person>
    <person id="tp243" depart="36446.89" departPos="random">
        <walk edges="152516783#1 152516783#2 152516783#3 152516783#4 25412020#0 25412019 152337236#1 -41595601#5 41595601#4 41595601#3 -41595601#2 41595601#0 819945210#0 -1467922383 819945211 -819942944#4 819942944#3 819942944#2 -152520535 1068735337 819942945#2 -819942945#0 1068735342#1 1068735342#0 -47578286 120840712#0 903531446 120840710 897592613 904728442 519913257#0 519913257#1" arrivalPos="19.12" />
    </person>
    <person id="tp226" depart="36541.29" departPos="random">
        <walk edges="210208895 -210208895" busStop="vbs_ski_corviglia_valley_chantarella" />
        <ride from="-210208895" to="519913257#1" arrivalPos="15.00" lines="taxi" />
        <walk edges="519913257#1" arrivalPos="20.48" />
    </person>
    <person id="tp258" depart="36609.79" departPos="random">
        <walk edges="235361058#0 26167908#4 26167908#3 26167908#1 26167898#1 26167898#0 30957907" busStop="2467.TA.92-1-N-j24-1.95.R.4" /> 
        <ride from="30957907" to="519913257#1" arrivalPos="15.00" lines="taxi" />
        <walk edges="519913257#1" arrivalPos="17.06" />
    </person>
    <person id="tp115" depart="36693.01" departPos="random">
        <walk edges="-26167908#1 26167908#1 26167898#1 26167898#0 30957907" busStop="2467.TA.92-1-N-j24-1.95.R.4" /> 
        <ride from="30957907" to="519913257#1" arrivalPos="15.00" lines="taxi" />
        <walk edges="519913257#1 519913257#0 916468197 72562096#0 89724876#3 916015460#1 916015460#0 1189801663 -268776830#1 268776830#0 888359128#3 14014151 -1127470773 -232471144#0 -189023060" arrivalPos="176.35" />
    </person>
    <person id="tp295" depart="36700.29" departPos="random">
        <walk edges="152516783#3 152516783#4 25412020#0 25412019 152337236#1 -41595601#5 41595601#4 41595601#3 -41595601#2 41595601#0 819945210#0 -1467922383 819945211 -819942944#4 819942944#3 819942944#2 -152520535 1068735337 819942945#2 -819942945#0 1068735342#1 1068735342#0 -47578286 120840712#0 903531446 120840710 897592613 904728442 519913257#0 519913257#1" arrivalPos="26.76" />
    </person>
    <person id="tp301" depart="36783.83" departPos="random">
        <walk edges="-914487471#0 -382202904#2 -382202904#1 382202904#0 170952322#1" busStop="2.TA.92-4-Q-j24-1.8.R.13" /> 
        <ride from="170952322#1" to="519913261#1" arrivalPos="15.00" lines="taxi" />
        <walk edges="519913261#1" arrivalPos="27.21" />
    </person>
    <person id="tp173" depart="36864.66" departPos="random">
        <walk edges="-256959700#2 256959700#2 -256959700#0 -52959697#3 -52959697#2 52959697#1 52959697#0 1201541125 -1472605488#0 1472605488#1 1472605488#2" busStop="1136.TA.92-10-J-j24-1.22.R.6" /> 
        <ride from="1472605488#2" to="519913265#1" arrivalPos="10.00" lines="taxi" />
        <walk edges="519913265#1" arrivalPos="8.44" />
    </person>
    <person id="tp192" depart="36973.10" departPos="random">
        <walk edges="543256263#4 543256263#3 -543256264#1 -543256264#0 -1435131960#2 1435131960#1 -268146971#4 -268146971#3 -268146971#2" busStop="2386.TA.92-1-N-j24-1.93.R.3" /> 
        <ride from="-268146971#2" to="519913265#1" arrivalPos="10.00" lines="taxi" />
        <walk edges="519913265#1" arrivalPos="13.51" />
    </person>
    <person id="tp229" depart="37008.03" departPos="random">
        <walk edges="30050433#3 -30050433#2" busStop="1008.TA.92-1-N-j24-1.88.H.21" /> 
        <ride from="-30050433#2" to="519913263#1" arrivalPos="15.00" lines="taxi" />
        <walk edges="519913263#1" arrivalPos="16.44" />
    </person>
    <person id="tp257" depart="37080.92" departPos="random">
        <walk edges="1435131955#1 72562019#4 72562019#3 72562019#2 -72562019#1 72562019#0 30952515#0" busStop="459.TA.92-10-J-j24-1.71.H.20" /> 
        <ride from="30952515#0" to="519913265#1" arrivalPos="10.00" lines="taxi" />
        <walk edges="519913265#1" arrivalPos="4.62" />
    </person>
    <person id="tp197" depart="37226.79" departPos="random">
        <walk edges="152385705#2 152385705#1 -152385705#0 -25303487#4" busStop="1008.TA.92-1-N-j24-1.88.H.19" /> 
        <ride from="-25303487#4" to="519913263#1" arrivalPos="15.00" lines="taxi" />
        <walk edges="519913263#1" arrivalPos="27.06" />
    </person>
    <person id="tp291" depart="37253.53" departPos="random">
        <walk edges="-152385705#0 -25303487#4" busStop="1008.TA.92-1-N-j24-1.88.H.19" /> 
        <ride from="-25303487#4" to="519913265#1" arrivalPos="10.00" lines="taxi" />
        <walk edges="519913265#1" arrivalPos="5.03" />
    </person>
    <person id="tp227" depart="37298.74" departPos="random">
        <walk edges="204540721#0 -268146940#5 268146940#6" busStop="1136.TA.92-10-J-j24-1.22.R.23" /> 
        <ride from="268146940#6" to="519913261#1" arrivalPos="15.00" lines="taxi" />
        <walk edges="519913261#1" arrivalPos="18.19" />
    </person>
    <person id="tp315" depart="37335.69" departPos="random">
        <walk edges="191253662#6 -191253662#7 -1068735332#3 1068735330#7" busStop="2386.TA.92-1-N-j24-1.93.R.0" /> 
        <ride from="1068735330#7" to="519913261#1" arrivalPos="15.00" lines="taxi" />
        <walk edges="519913261#1" arrivalPos="4.30" />
    </person>
    <person id="tp320" depart="37476.93" departPos="random">
        <walk edges="88717666#5 88717666#4 -88717666#3 88717666#2 88717666#1 96461180#5" busStop="114.TA.92-9-H-j24-1.10.H.8" /> 
        <ride from="96461180#5" to="519913261#1" arrivalPos="15.00" lines="taxi" />
        <walk edges="519913261#1" arrivalPos="0.79" />
    </person>
    <person id="tp276" depart="37535.84" departPos="random">
        <walk edges="915198676#2 915198674 915198678#0" busStop="158.TA.96-260-1-j24-1.72.H.33" /> 
        <ride from="915198678#0" to="519913265#1" arrivalPos="10.00" lines="taxi" />
        <walk edges="519913265#1" arrivalPos="7.65" />
    </person>
    <person id="tp42" depart="37541.70" departPos="random">
        <walk edges="30984012#2 30984008 1068735330#7" busStop="2386.TA.92-1-N-j24-1.93.R.0" /> 
        <ride from="1068735330#7" to="1068941219#7" arrivalPos="18.33" lines="taxi" />
        <walk edges="1068941219#7 -1068941219#8 -1068941219#9 1068941218 -612250570#0" arrivalPos="285.64" />
    </person>
    <person id="tp330" depart="37570.27" departPos="random">
        <walk edges="977370315 30957908#1 915198678#0" busStop="158.TA.96-260-1-j24-1.72.H.33" /> 
        <ride from="915198678#0" to="519913257#1" arrivalPos="15.00" lines="taxi" />
        <walk edges="519913257#1" arrivalPos="26.56" />
    </person>
    <person id="tp56" depart="37574.78" departPos="random">
        <walk edges="-117803119#0 117803119#1 -117803119#2 -679130967#1 -679130967#0 -25475987#1 25475987#0 25418591#5" busStop="2467.TA.92-1-N-j24-1.95.R.1" /> 
        <ride from="25418591#5" to="519913263#1" arrivalPos="15.00" lines="taxi" />
        <walk edges="519913263#1" arrivalPos="1.90" />
    </person>
    <person id="tp193" depart="37652.57" departPos="random">
        <walk edges="543256263#3 -543256264#1 -543256264#0 -1435131960#2 1435131960#1 -268146971#4 -268146971#3 -268146971#2" busStop="2386.TA.92-1-N-j24-1.93.R.3" /> 
        <ride from="-268146971#2" to="519913257#1" arrivalPos="15.00" lines="taxi" />
        <walk edges="519913257#1" arrivalPos="5.12" />
    </person>
    <person id="tp279" depart="37655.17" departPos="random">
        <walk edges="1435131955#2 1435131955#1 72562019#4 72562019#3 72562019#2 -72562019#1 72562019#0 30952515#0" busStop="459.TA.92-10-J-j24-1.71.H.20" /> 
        <ride from="30952515#0" to="519913265#1" arrivalPos="10.00" lines="taxi" />
        <walk edges="519913265#1" arrivalPos="27.21" />
    </person>
    <person id="tp248" depart="37664.02" departPos="random">
        <walk edges="191253662#4 -191253662#4 191253662#5 191253662#6 -191253662#7 -1068735332#3 1068735330#7" busStop="2386.TA.92-1-N-j24-1.93.R.0" /> 
        <ride from="1068735330#7" to="519913261#1" arrivalPos="15.00" lines="taxi" />
        <walk edges="519913261#1" arrivalPos="8.90" />
    </person>
    <person id="tp101" depart="37694.75" departPos="random">
        <walk edges="152517715#0 25303487#6 25303487#5 -25303487#4" busStop="1008.TA.92-1-N-j24-1.88.H.19" /> 
        <ride from="-25303487#4" to="25418590#1" arrivalPos="2.00" lines="taxi" />
        <walk edges="25418590#1 30957918#0" arrivalPos="10.79" />
    </person>
    <person id="tp108" depart="37760.83" departPos="random">
        <walk edges="26167684#1 26167684#0 170952324#0 -170952324#1" busStop="1008.TA.92-1-N-j24-1.88.H.23" /> 
        <ride from="-170952324#1" to="1086005533" arrivalPos="30.56" lines="taxi" />
        <walk edges="1086005533 1136237769 1136237771 1086005532#0 1086005532#1" arrivalPos="1.79" />
    </person>
    <person id="tp213" depart="37775.13" departPos="random">
        <walk edges="-188730896#5 -188730896#6 740109140" busStop="vbs_ski_corviglia_valley_chasellas" />
        <ride from="740109140" to="519913265#1" arrivalPos="10.00" lines="taxi" />
        <walk edges="519913265#1" arrivalPos="15.55" />
    </person>
    <person id="tp323" depart="37782.15" departPos="random">
        <walk edges="72562019#2 -72562019#1 72562019#0 30952515#0" busStop="459.TA.92-10-J-j24-1.71.H.20" /> 
        <ride from="30952515#0" to="519913261#1" arrivalPos="15.00" lines="taxi" />
        <walk edges="519913261#1" arrivalPos="5.87" />
    </person>
    <person id="tp181" depart="37803.98" departPos="random">
        <walk edges="30957926#1 30957925 -1050853709#0" busStop="2467.TA.92-1-N-j24-1.95.R.0" /> 
        <ride from="-1050853709#0" to="519913265#1" arrivalPos="10.00" lines="taxi" />
        <walk edges="519913265#1" arrivalPos="4.95" />
    </person>
    <person id="tp67" depart="37806.18" departPos="random">
        <walk edges="-1113452970#0 1113452970#0 1115020158" busStop="1034.TA.92-2-L-j24-1.15.H.12" /> 
        <ride from="1115020158" to="-1083273108#2" arrivalPos="214.99" lines="taxi" />
        <walk edges="-1083273108#2 -1083273108#3" arrivalPos="0.06" />
    </person>
    <person id="tp185" depart="37810.52" departPos="random">
        <walk edges="-30984006 -30984012#3 30984012#2 30984008 1068735330#7" busStop="2386.TA.92-1-N-j24-1.93.R.0" /> 
        <ride from="1068735330#7" to="519913265#1" arrivalPos="10.00" lines="taxi" />
        <walk edges="519913265#1" arrivalPos="2.19" />
    </person>
    <person id="tp105" depart="37844.76" departPos="random">
        <walk edges="267559167#2 267559167#1 -267559167#0 -916559232#1 -916559232#0 -1161282679#6" busStop="262.TA.92-10-J-j24-1.4.H.8" /> 
        <ride from="-1161282679#6" to="1068735330#7" arrivalPos="7.50" lines="taxi" />
        <walk edges="1068735330#7 30952500#0 -30952535#0 30952510#0 30952510#1" arrivalPos="15.85" />
    </person>