<routes xmlns:xsi="http://www.w3.org/2001/XMLSchema-instance" xsi:noNamespaceSchemaLocation="http://sumo.dlr.de/xsd/routes_file.xsd">
    <person id="tp2353" depart="28803.69" departPos="random">
        <ride from="-1005052428#1" to="208825826" arrivalPos="41.20" lines="taxi" />
        <walk edges="208825826 -208825827#0 208825827#2 -208825827#3 -208825827#4 208825827#5 208826839#0 208826839#1 -208826839#2" arrivalPos="414.80" />
    </person>
    <person id="tp2146" depart="28810.87" departPos="random">
        <ride from="-30952523#4" to="1050853710" arrivalPos="26.41" lines="taxi" />
        <walk edges="1050853710 -1050853709#1" arrivalPos="2.31" />
    </person>
    <person id="tp3846" depart="28817.71" departPos="random">
        <ride from="1115015078#2" to="519913263#1" arrivalPos="15.00" lines="taxi" />
        <walk edges="519913263#1" arrivalPos="1.29" />
    </person>
    <person id="tp4384" depart="28818.30" departPos="random">
        <ride from="-30984018#5" to="30957907" arrivalPos="553.86" lines="taxi" />
        <walk edges="30957907 26167898#0 26167898#1 -26167908#1 26167908#3 26167908#4 235361058#0 235361058#1" arrivalPos="67.43" />
    </person>
    <person id="tp2854" depart="28837.87" departPos="random">
        <ride from="-189023055#6" to="-894905824" arrivalPos="13.28" lines="taxi" />
        <walk edges="-894905824 1068735318#0 -1068735318#1 -1068735318#2 -256959702#0 -256959702#1 -256959702#2" arrivalPos="7.11" />
    </person>
    <person id="tp4127" depart="28838.76" departPos="random">
        <ride from="-154770319#1" to="519913261#1" arrivalPos="15.00" lines="taxi" />
        <walk edges="519913261#1" arrivalPos="1.24" />
    </person>
    <person id="tp2808" depart="28844.72" departPos="random">
        <ride from="26167684#1" to="209755663#3" arrivalPos="2.55" lines="taxi" />
        <walk edges="209755663#3 209755663#2 -209755663#0 1317098557 59637812#0 59637812#1 -59637812#2 -59637812#3 59637812#4 -59637812#5 59637812#7 -59637812#8 59637812#9 -59637812#10 1086010084" arrivalPos="20.60" />
    </person>
    <person id="tp2170" depart="28847.47" departPos="random">
        <ride from="-187633173#0" to="1050853710" arrivalPos="26.41" lines="taxi" />
        <walk edges="1050853710 -1050853709#1" arrivalPos="0.80" />
    </person>
    <person id="tp1105" depart="28863.18" departPos="random">
        <ride from="-973459742#1" to="187198083#7" arrivalPos="10.67" lines="taxi" />
        <walk edges="187198083#7 31061889#0 31061889#2 -31061889#3 -31061889#4 186141915#0 -186141915#1 1430507283 -645951511#0 1085798451" arrivalPos="188.64" />
    </person>
    <person id="tp4780" depart="28865.98" departPos="random">
        <ride from="-1428300392#0" to="-1113164891" arrivalPos="19.64" lines="taxi" />
        <walk edges="-1113164891 1041492060#1" arrivalPos="11.75" />
    </person>
    <person id="tp2623" depart="28886.44" departPos="random">
        <ride from="-916559232#1" to="-1443580513#2" arrivalPos="13.80" lines="taxi" />
        <walk edges="-1443580513#2 -1443580513#3 1443580513#4" arrivalPos="0.08" />
    </person>
    <person id="tp467" depart="28891.39" departPos="random">
        <ride from="-52959697#3" to="1426892794#3" arrivalPos="11.14" lines="taxi" />
        <walk edges="1426892794#3 71759543#0 71759543#1" arrivalPos="51.83" />
    </person>
    <person id="tp2556" depart="28894.22" departPos="random">
        <ride from="25303411#1" to="175833048" arrivalPos="84.81" lines="taxi" />
        <walk edges="175833048 677287119#1" arrivalPos="129.73" />
    </person>
    <person id="tp1192" depart="28914.32" departPos="random">
        <ride from="-25418326#1" to="18887954#0" arrivalPos="6.62" lines="taxi" />
        <walk edges="18887954#0 116715858 -147218475#2" arrivalPos="12.83" />
    </person>
    <person id="tp4422" depart="28921.70" departPos="random">
        <ride from="-204540721#0" to="740109140" arrivalPos="20.48" lines="taxi" />
        <walk edges="740109140 -196520689#0" arrivalPos="114.03" />
    </person>
    <person id="tp58" depart="28921.78" departPos="random">
        <ride from="522706570#1" to="-633986854#1" arrivalPos="7.26" lines="taxi" />
        <walk edges="-633986854#1 -68115526#1 68115526#0 -68115532" arrivalPos="18.51" />
    </person>
    <person id="tp349" depart="28930.11" departPos="random">
        <ride from="-315159494#2" to="-894849663" arrivalPos="34.23" lines="taxi" />
        <walk edges="-894849663 -25418244#0" arrivalPos="0.84" />
    </person>
    <person id="tp4972" depart="28935.65" departPos="random">
        <ride from="1068735342#0" to="-268146971#2" arrivalPos="37.39" lines="taxi" />
        <walk edges="-268146971#2 -268146971#3" arrivalPos="23.81" />
    </person>
    <person id="tp3624" depart="28935.77" departPos="random">
        <ride from="-819945220#0" to="894576901#0" arrivalPos="26.60" lines="taxi" />
        <walk edges="894576901#0 -41595603#2 -819942940#1 -152522410#1 1005048061#2" arrivalPos="6.63" />
    </person>
    <person id="tp2847" depart="28943.44" departPos="random">
        <ride from="239178470#0" to="-96461182#0" arrivalPos="7.50" lines="taxi" />
        <walk edges="-96461182#0 96461182#1 -96461182#2 -66846274 14014133#2 14014131#0 -14014131#1 -208882166" arrivalPos="31.69" />
    </person>
    <person id="tp291" depart="28949.63" departPos="random">
        <ride from="1186865305" to="519913263#1" arrivalPos="15.00" lines="taxi" />
        <walk edges="519913263#1" arrivalPos="1.31" />
    </person>
    <person id="tp3932" depart="28952.52" departPos="random">
        <ride from="382202904#1" to="519913263#1" arrivalPos="15.00" lines="taxi" />
        <walk edges="519913263#1" arrivalPos="14.54" />
    </person>
    <person id="tp2236" depart="28958.96" departPos="random">
        <ride from="25412020#0" to="-1083351550#0" arrivalPos="16.69" lines="taxi" />
        <walk edges="-1083351550#0 120829163#1 -120829163#0 1110581123" arrivalPos="4.24" />
    </person>
    <person id="tp3475" depart="28964.96" departPos="random">
        <ride from="-41595601#4" to="25418588#1" arrivalPos="7.50" lines="taxi" />
        <walk edges="25418588#1" arrivalPos="78.70" />
    </person>
    <person id="tp131" depart="28979.52" departPos="random">
        <ride from="-257424360" to="-1443580513#2" arrivalPos="13.80" lines="taxi" />
        <walk edges="-1443580513#2 -1443580513#3 1443580513#4" arrivalPos="12.09" />
    </person>
    <person id="tp2525" depart="28987.96" departPos="random">
        <ride from="-1068735337" to="-1083351550#0" arrivalPos="16.69" lines="taxi" />
        <walk edges="-1083351550#0 120829163#1 366854461#0 -366854461#1" arrivalPos="177.70" />
    </person>
    <person id="tp2593" depart="28988.84" departPos="random">
        <ride from="-69347933#0" to="-1443580513#2" arrivalPos="13.80" lines="taxi" />
        <walk edges="-1443580513#2 -1443580513#3 1443580513#4" arrivalPos="11.43" />
    </person>
    <person id="tp4358" depart="28999.97" departPos="random">
        <ride from="-191253662#3" to="-25303487#4" arrivalPos="17.78" lines="taxi" />
        <walk edges="-25303487#4 -25303487#3" arrivalPos="29.87" />
    </person>
    <person id="tp4886" depart="29006.87" departPos="random">
        <ride from="-30957915" to="25412019" arrivalPos="14.90" lines="taxi" />
        <walk edges="25412019 25412020#0 152516783#4 152516783#3 152516783#2 152516783#1" arrivalPos="33.67" />
    </person>
    <person id="tp3640" depart="29008.79" departPos="random">
        <ride from="204540721#1" to="170952324#1" arrivalPos="7.50" lines="taxi" />
        <walk edges="170952324#1 170952324#0 -19724261" arrivalPos="1.66" />
    </person>
    <person id="tp3926" depart="29021.83" departPos="random">
        <ride from="-72562019#2" to="519913257#1" arrivalPos="15.00" lines="taxi" />
        <walk edges="519913257#1" arrivalPos="0.93" />
    </person>
    <person id="tp2364" depart="29025.90" departPos="random">
        <ride from="196519206#0" to="-69218976#0" arrivalPos="93.33" lines="taxi" />
        <walk edges="-69218976#0 -1441870936#7 1441870936#6 1441870936#5 1441870936#4 1441870936#3 -1441870936#2" arrivalPos="3.15" />
    </person>
    <person id="tp5024" depart="29033.00" departPos="random">
        <ride from="894841757" to="-1113164891" arrivalPos="19.64" lines="taxi" />
        <walk edges="-1113164891 1041492060#1" arrivalPos="12.06" />
    </person>
    <person id="tp1120" depart="29042.15" departPos="random">
        <ride from="-278156729#2" to="187198083#3" arrivalPos="48.13" lines="taxi" />
        <walk edges="187198083#3 -187198083#3" arrivalPos="9.85" />
    </person>
    <person id="tp2126" depart="29071.60" departPos="random">
        <ride from="-25418590#4" to="25303487#3" arrivalPos="46.08" lines="taxi" />
        <walk edges="25303487#3 -25303487#3" arrivalPos="72.04" />
    </person>
    <person id="tp3493" depart="29072.49" departPos="random">
        <ride from="519913265#0" to="1068941219#7" arrivalPos="18.33" lines="taxi" />
        <walk edges="1068941219#7" arrivalPos="3.14" />
    </person>
    <person id="tp4367" depart="29077.36" departPos="random">
        <ride from="25303411#0" to="740109140" arrivalPos="20.48" lines="taxi" />
        <walk edges="740109140 -196520689#0" arrivalPos="137.95" />
    </person>
    <person id="tp2182" depart="29078.20" departPos="random">
        <ride from="-1085798449" to="-210208895" arrivalPos="18.71" lines="taxi" />
        <walk edges="-210208895" arrivalPos="16.69" />
    </person>
    <person id="tp3219" depart="29085.43" departPos="random">
        <ride from="191253662#0" to="25418588#1" arrivalPos="7.50" lines="taxi" />
        <walk edges="25418588#1 -1050853680" arrivalPos="3.90" />
    </person>
    <person id="tp1392" depart="29087.53" departPos="random">
        <ride from="175050124#1" to="30957907" arrivalPos="553.86" lines="taxi" />
        <walk edges="30957907 26167898#0 26167898#1 -26167908#1 26167908#3 26167908#4 235361058#0 235361058#1" arrivalPos="17.20" />
    </person>
    <person id="tp3163" depart="29089.28" departPos="random">
        <ride from="-268152262#4" to="-1068735330#1" arrivalPos="7.04" lines="taxi" />
        <walk edges="-1068735330#1" arrivalPos="7.51" />
    </person>
    <person id="tp1856" depart="29090.88" departPos="random">
        <ride from="116077721#1" to="1426892794#3" arrivalPos="11.14" lines="taxi" />
        <walk edges="1426892794#3 71759543#0 -71759543#1 71759543#2 -71759543#3 71759543#4 -71759543#5 -522703217#2 522703217#1 522703217#0 171771388#4" arrivalPos="41.85" />
    </person>
    <person id="tp2238" depart="29106.26" departPos="random">
        <ride from="30957910#2" to="120829159" arrivalPos="10.00" lines="taxi" />
        <walk edges="120829159 1083356001 614559903" arrivalPos="7.12" />
    </person>
    <person id="tp4186" depart="29112.07" departPos="random">
        <ride from="-191377224#1" to="519913261#1" arrivalPos="15.00" lines="taxi" />
        <walk edges="519913261#1" arrivalPos="6.33" />
    </person>
    <person id="tp2166" depart="29122.01" departPos="random">
        <ride from="30952523#3" to="1050853710" arrivalPos="26.41" lines="taxi" />
        <walk edges="1050853710 -1050853709#1" arrivalPos="0.54" />
    </person>
    <person id="tp94" depart="29122.82" departPos="random">
        <ride from="-391657350#1" to="1443580513#2" arrivalPos="26.26" lines="taxi" />
        <walk edges="1443580513#2 -1443580513#3 1443580513#4" arrivalPos="7.36" />
    </person>
    <person id="tp2885" depart="29125.19" departPos="random">
        <ride from="-382202903#2" to="256959704#2" arrivalPos="7.50" lines="taxi" />
        <walk edges="256959704#2 -256959704#0 56257117#0" arrivalPos="11.87" />
    </person>
    <person id="tp2415" depart="29129.76" departPos="random">
        <ride from="-152516779#0" to="62065386" arrivalPos="7.50" lines="taxi" />
        <walk edges="62065386 120839520 -41157381 171771447#1 171771447#2 -171771447#3 -171771447#4 -171771447#5 -889967615 171771398" arrivalPos="23.56" />
    </person>
    <person id="tp2764" depart="29134.66" departPos="random">
        <ride from="-25303487#1" to="-894905824" arrivalPos="13.28" lines="taxi" />
        <walk edges="-894905824 1068735318#0 -1068735318#1 -1068735318#2 -256959702#0 -256959702#1 -256959702#2 256959702#3" arrivalPos="1.97" />
    </person>
    <person id="tp5117" depart="29134.72" departPos="random">
        <ride from="-189023060" to="-268146971#2" arrivalPos="37.39" lines="taxi" />
        <walk edges="-268146971#2 -268146971#3" arrivalPos="18.17" />
    </person>
    <person id="tp437" depart="29139.76" departPos="random">
        <ride from="1086010083" to="-501346489#2" arrivalPos="22.96" lines="taxi" />
        <walk edges="-501346489#2 501346489#1" arrivalPos="24.93" />
    </person>
    <person id="tp558" depart="29140.80" departPos="random">
        <ride from="-58413640#0" to="-1443580513#2" arrivalPos="13.80" lines="taxi" />
        <walk edges="-1443580513#2 -1443580513#3 1443580513#4" arrivalPos="7.68" />
    </person>
    <person id="tp537" depart="29142.66" departPos="random">
        <ride from="150335026#4" to="-1443580513#2" arrivalPos="13.80" lines="taxi" />
        <walk edges="-1443580513#2 -1443580513#3 1443580513#4" arrivalPos="8.91" />
    </person>
    <person id="tp2420" depart="29148.12" departPos="random">
        <ride from="-14014151" to="890169725#1" arrivalPos="3.09" lines="taxi" />
        <walk edges="890169725#1 -890169723#0 -890169723#1 890169723#2 -1036672006#0 -1036672006#1 391653985#1 1036672007 1036672004#0 -1036672004#1 -338400632#3 391653986#0 391653986#1 391653986#2" arrivalPos="9.31" />
    </person>
    <person id="tp310" depart="29150.79" departPos="random">
        <ride from="391999126#0" to="519913265#1" arrivalPos="10.00" lines="taxi" />
        <walk edges="519913265#1" arrivalPos="26.32" />
    </person>
    <person id="tp2380" depart="29152.80" departPos="random">
        <ride from="-914487470" to="890169725#1" arrivalPos="3.09" lines="taxi" />
        <walk edges="890169725#1 -890169723#0 -890169723#1 890169723#2 -1036672006#0 -1036672006#1 391653985#1 1036672007 -391653993#2 338400631#1" arrivalPos="27.56" />
    </person>
    <person id="tp460" depart="29155.36" departPos="random">
        <ride from="-239035118#4" to="1426892794#3" arrivalPos="11.14" lines="taxi" />
        <walk edges="1426892794#3 71759543#0 -71759543#1 71759543#2 -71759543#3 522706570#0 -522706566#1 522706566#0 -522706560#1 -522703215#2 -522703215#3" arrivalPos="8.00" />
    </person>
    <person id="tp1930" depart="29161.68" departPos="random">
        <ride from="-430606783" to="-96461182#0" arrivalPos="7.50" lines="taxi" />
        <walk edges="-96461182#0 1472605488#1 -56195874#1 -56195874#2 56195874#5" arrivalPos="34.24" />
    </person>
    <person id="tp4477" depart="29170.60" departPos="random">
        <ride from="1005052428#2" to="740109140" arrivalPos="20.48" lines="taxi" />
        <walk edges="740109140 -196520689#0" arrivalPos="33.91" />
    </person>
    <person id="tp5090" depart="29180.40" departPos="random">
        <ride from="1115015078#2" to="740109140" arrivalPos="20.48" lines="taxi" />
        <walk edges="740109140" arrivalPos="64.53" />
    </person>
    <person id="tp4591" depart="29196.84" departPos="random">
        <ride from="519913261#0" to="1050853710" arrivalPos="26.41" lines="taxi" />
        <walk edges="1050853710 -1050853709#1" arrivalPos="0.59" />
    </person>
    <person id="tp91" depart="29197.95" departPos="random">
        <ride from="-391999126#1" to="-1443580513#2" arrivalPos="13.80" lines="taxi" />
        <walk edges="-1443580513#2 -1443580513#3 1443580513#4" arrivalPos="8.26" />
    </person>
    <person id="tp2907" depart="29204.34" departPos="random">
        <ride from="-239178470#1" to="-96461182#0" arrivalPos="7.50" lines="taxi" />
        <walk edges="-96461182#0 1472605488#1 1472605488#0 1201541125 52959697#0 52959697#1 52959697#2 -52959697#3 56085325#0 -56085323#1" arrivalPos="3.27" />
    </person>
    <person id="tp2938" depart="29214.54" departPos="random">
        <ride from="-170940321#1" to="256959704#2" arrivalPos="7.50" lines="taxi" />
        <walk edges="256959704#2 -256959704#0 56257117#0 -56257117#1 -56257117#2 -56257135#1" arrivalPos="0.40" />
    </person>
    <person id="tp2124" depart="29222.97" departPos="random">
        <ride from="-187633173#0" to="894576901#0" arrivalPos="26.60" lines="taxi" />
        <walk edges="894576901#0" arrivalPos="9.51" />
    </person>
    <person id="tp418" depart="29225.10" departPos="random">
        <ride from="14014133#1" to="315159496#1" arrivalPos="7.50" lines="taxi" />
        <walk edges="315159496#1 315159496#2 -315159496#3" arrivalPos="5.21" />
    </person>
    <person id="tp2086" depart="29248.80" departPos="random">
        <ride from="-30952512#2" to="-268146971#2" arrivalPos="37.39" lines="taxi" />
        <walk edges="-268146971#2 -268146971#3 268146971#4" arrivalPos="15.94" />
    </person>
    <person id="tp4461" depart="29251.02" departPos="random">
        <ride from="26167684#4" to="740109140" arrivalPos="20.48" lines="taxi" />
        <walk edges="740109140 -196520689#0" arrivalPos="13.49" />
    </person>
    <person id="tp1257" depart="29253.10" departPos="random">
        <ride from="-25418326#0" to="268146940#6" arrivalPos="7.77" lines="taxi" />
        <walk edges="268146940#6 268146940#5 -268146940#4 268146940#3 39830434#0 39830434#1 -39830434#2 25366042#6" arrivalPos="25.21" />
    </person>
    <person id="tp4681" depart="29257.67" departPos="random">
        <ride from="916015460#0" to="1050853710" arrivalPos="26.41" lines="taxi" />
        <walk edges="1050853710 -1050853709#1" arrivalPos="3.21" />
    </person>
    <person id="tp1216" depart="29264.31" departPos="random">
        <ride from="-66846274" to="519913265#1" arrivalPos="10.00" lines="taxi" />
        <walk edges="519913265#1 519913265#0" arrivalPos="0.06" />
    </person>
    <person id="tp3849" depart="29266.74" departPos="random">
        <ride from="188730896#6" to="519913263#1" arrivalPos="15.00" lines="taxi" />
        <walk edges="519913263#1" arrivalPos="9.61" />
    </person>
    <person id="tp1106" depart="29269.00" departPos="random">
        <ride from="76129128#1" to="18887954#0" arrivalPos="6.62" lines="taxi" />
        <walk edges="18887954#0 -18887954#1 -18887954#2 185833044#1 -116576984#0" arrivalPos="2.68" />
    </person>
    <person id="tp3773" depart="29273.69" departPos="random">
        <ride from="188731354#0" to="519913261#1" arrivalPos="15.00" lines="taxi" />
        <walk edges="519913261#1" arrivalPos="16.08" />
    </person>
    <person id="tp1805" depart="29277.60" departPos="random">
        <ride from="-56257135#0" to="740109140" arrivalPos="20.48" lines="taxi" />
        <walk edges="740109140" arrivalPos="14.00" />
    </person>
    <person id="tp1802" depart="29287.44" departPos="random">
        <ride from="349887478" to="-210208895" arrivalPos="18.71" lines="taxi" />
        <walk edges="-210208895" arrivalPos="9.10" />
    </person>
    <person id="tp1371" depart="29290.24" departPos="random">
        <ride from="-241932762#3" to="-210208895" arrivalPos="18.71" lines="taxi" />
        <walk edges="-210208895" arrivalPos="2.36" />
    </person>
    <person id="tp1302" depart="29292.23" departPos="random">
        <ride from="-150335026#2" to="519913257#1" arrivalPos="15.00" lines="taxi" />
        <walk edges="519913257#1" arrivalPos="2.29" />
    </person>
    <person id="tp3895" depart="29298.55" departPos="random">
        <ride from="543256264#1" to="519913261#1" arrivalPos="15.00" lines="taxi" />
        <walk edges="519913261#1" arrivalPos="20.47" />
    </person>
    <person id="tp2250" depart="29299.58" departPos="random">
        <ride from="-915198676#0" to="-502426852#0" arrivalPos="73.49" lines="taxi" />
        <walk edges="-502426852#0 -502426852#1 502426852#2 -502426852#3 -518702669 208216575#1 -1083351549#1 1083351549#0 -208216583#1" arrivalPos="90.32" />
    </person>
    <person id="tp2249" depart="29302.49" departPos="random">
        <ride from="-26167908#0" to="1083273108#2" arrivalPos="7.50" lines="taxi" />
        <walk edges="1083273108#2 123066460 1083299692 1085583302#1" arrivalPos="14.87" />
    </person>
    <person id="tp2093" depart="29304.40" departPos="random">
        <ride from="-30952535#1" to="519913257#1" arrivalPos="15.00" lines="taxi" />
        <walk edges="519913257#1" arrivalPos="6.08" />
    </person>
    <person id="tp4550" depart="29312.21" departPos="random">
        <ride from="888359128#3" to="-30957907" arrivalPos="66.03" lines="taxi" />
        <walk edges="-30957907 26167898#0 26167898#1 -26167908#1 26167908#3 26167908#4 235361058#0 235361058#1" arrivalPos="93.11" />
    </person>
    <person id="tp2711" depart="29314.41" departPos="random">
        <ride from="-191378082#0" to="-1443580513#2" arrivalPos="13.80" lines="taxi" />
        <walk edges="-1443580513#2 -1443580513#3 1443580513#4" arrivalPos="5.45" />
    </person>
    <person id="tp1140" depart="29318.02" departPos="random">
        <ride from="-208825827#3" to="76091869#1" arrivalPos="12.69" lines="taxi" />
        <walk edges="76091869#1" arrivalPos="330.81" />
    </person>
    <person id="tp808" depart="29328.68" departPos="random">
        <ride from="241932762#0" to="208825826" arrivalPos="41.20" lines="taxi" />
        <walk edges="208825826 208825827#0" arrivalPos="41.76" />
    </person>
    <person id="tp1349" depart="29336.72" departPos="random">
        <ride from="-208825827#3" to="519913265#1" arrivalPos="10.00" lines="taxi" />
        <walk edges="519913265#1" arrivalPos="14.06" />
    </person>
    <person id="tp2466" depart="29339.31" departPos="random">
        <ride from="89724876#5" to="1426892794#3" arrivalPos="11.14" lines="taxi" />
        <walk edges="1426892794#3 71759543#0 71759543#1" arrivalPos="63.57" />
    </person>
    <person id="tp560" depart="29341.66" departPos="random">
        <ride from="14014131#0" to="-1443580513#2" arrivalPos="13.80" lines="taxi" />
        <walk edges="-1443580513#2 -1443580513#3 1443580513#4" arrivalPos="7.54" />
    </person>
    <person id="tp2696" depart="29348.26" departPos="random">
        <ride from="-96461180#0" to="-1443580513#2" arrivalPos="13.80" lines="taxi" />
        <walk edges="-1443580513#2 -1443580513#3 1443580513#4" arrivalPos="5.37" />
    </person>
    <person id="tp1849" depart="29359.83" departPos="random">
        <ride from="56240279#2" to="740109140" arrivalPos="20.48" lines="taxi" />
        <walk edges="740109140" arrivalPos="24.68" />
    </person>
    <person id="tp2865" depart="29366.59" departPos="random">
        <ride from="-1068735336#1" to="-96461182#0" arrivalPos="7.50" lines="taxi" />
        <walk edges="-96461182#0 1472605488#1 1472605488#0 1201541125 52959697#0 52959697#1 52959697#2 -52959697#3 56085325#0 -56085325#1 -56085325#2" arrivalPos="47.95" />
    </person>
    <person id="tp2467" depart="29395.98" departPos="random">
        <ride from="-268146944#1" to="-633986854#1" arrivalPos="7.26" lines="taxi" />
        <walk edges="-633986854#1 -68115526#1 68115526#0 -68115532" arrivalPos="1.67" />
    </person>
    <person id="tp1096" depart="29403.54" departPos="random">
        <ride from="-1472605488#0" to="187198083#7" arrivalPos="10.67" lines="taxi" />
        <walk edges="187198083#7 31061889#0 31061889#2 -31061889#3 -31061889#4 186141915#0 -186141915#1 1430507283 -645951511#0 1085798451 -1068941219#1 1068941219#2" arrivalPos="65.50" />
    </person>
    <person id="tp2829" depart="29404.05" departPos="random">
        <ride from="-30957915" to="209755663#3" arrivalPos="2.55" lines="taxi" />
        <walk edges="209755663#3" arrivalPos="0.58" />
    </person>
    <person id="tp4057" depart="29408.97" departPos="random">
        <ride from="1005170350" to="519913257#1" arrivalPos="15.00" lines="taxi" />
        <walk edges="519913257#1" arrivalPos="25.06" />
    </person>
    <person id="tp2923" depart="29414.93" departPos="random">
        <ride from="-41595601#5" to="209755663#3" arrivalPos="2.55" lines="taxi" />
        <walk edges="209755663#3 209755663#2 -209755663#0 1317098557 59637812#0 59637812#1 -59637812#2 -59637812#3 59637812#4 -59637812#5 59637812#7 -59637812#8 59637812#9 -59637812#10 -1086010084 -1086010083 -175833044#1 175833044#0 175833041 241932762#4 241932762#3 -241932762#2 241932762#1 241932762#0 -426408082#1 426408082#0 -426408076#5 426408076#4" arrivalPos="8.98" />
    </person>
    <person id="tp3639" depart="29416.58" departPos="random">
        <ride from="-191253662#4" to="-25303487#4" arrivalPos="17.78" lines="taxi" />
        <walk edges="-25303487#4 25303487#5 -25303487#6" arrivalPos="88.85" />
    </person>
    <person id="tp380" depart="29417.73" departPos="random">
        <ride from="-120839520" to="25412019" arrivalPos="14.90" lines="taxi" />
        <walk edges="25412019 25412020#0 152516783#4 152516783#3 152516783#2 152516783#1" arrivalPos="30.47" />
    </person>
    <person id="tp3621" depart="29419.58" departPos="random">
        <ride from="154770319#1" to="-819942944#4" arrivalPos="39.13" lines="taxi" />
        <walk edges="-819942944#4" arrivalPos="22.28" />
    </person>
    <person id="tp3386" depart="29437.29" departPos="random">
        <ride from="191253662#5" to="1086005529" arrivalPos="102.22" lines="taxi" />
        <walk edges="1086005529 14014136#0 14014136#1 14014136#2 1086005535 76091869#1" arrivalPos="382.24" />
    </person>
    <person id="tp4581" depart="29441.85" departPos="random">
        <ride from="915198670" to="1050853710" arrivalPos="26.41" lines="taxi" />
        <walk edges="1050853710 -1050853709#1" arrivalPos="1.48" />
    </person>
    <person id="tp2154" depart="29445.00" departPos="random">
        <ride from="612250570#5" to="1050853710" arrivalPos="26.41" lines="taxi" />
        <walk edges="1050853710 -1050853709#1" arrivalPos="2.83" />
    </person>
    <person id="tp4053" depart="29474.73" departPos="random">
        <ride from="-25303489#0" to="519913265#1" arrivalPos="10.00" lines="taxi" />
        <walk edges="519913265#1" arrivalPos="15.73" />
    </person>
    <person id="tp2328" depart="29479.44" departPos="random">
        <ride from="-25303412" to="977972909" arrivalPos="68.09" lines="taxi" />
        <walk edges="977972909 -315159485#0 -315159485#1 315159485#2 315159485#3 315159485#4 315159485#5" arrivalPos="14.54" />
    </person>
    <person id="tp832" depart="29484.37" departPos="random">
        <ride from="59637812#5" to="1472605488#2" arrivalPos="18.43" lines="taxi" />
        <walk edges="1472605488#2 -96461182#0" arrivalPos="8.54" />
    </person>
    <person id="tp220" depart="29493.28" departPos="random">
        <ride from="391653982#2" to="1068735330#1" arrivalPos="7.04" lines="taxi" />
        <walk edges="1068735330#1 1068735330#0 18888058 72562012" arrivalPos="259.67" />
    </person>
    <person id="tp4360" depart="29502.35" departPos="random">
        <ride from="30957914#2" to="894576901#0" arrivalPos="26.60" lines="taxi" />
        <walk edges="894576901#0" arrivalPos="11.69" />
    </person>
    <person id="tp4431" depart="29506.78" departPos="random">
        <ride from="152516783#4" to="-25303487#4" arrivalPos="17.78" lines="taxi" />
        <walk edges="-25303487#4 -25303487#3" arrivalPos="52.68" />
    </person>
    <person id="tp4799" depart="29518.91" departPos="random">
        <ride from="152517443#0" to="740109140" arrivalPos="20.48" lines="taxi" />
        <walk edges="740109140" arrivalPos="6.86" />
    </person>
    <person id="tp3440" depart="29523.55" departPos="random">
        <ride from="-1161282679#0" to="1068941219#7" arrivalPos="18.33" lines="taxi" />
        <walk edges="1068941219#7" arrivalPos="49.11" />
    </person>
    <person id="tp4043" depart="29542.15" departPos="random">
        <ride from="25303411#0" to="519913261#1" arrivalPos="15.00" lines="taxi" />
        <walk edges="519913261#1" arrivalPos="18.76" />
    </person>
    <person id="tp2079" depart="29549.49" departPos="random">
        <ride from="116077719#0" to="268146940#6" arrivalPos="7.77" lines="taxi" />
        <walk edges="268146940#6 1161282679#0 -1161282679#1 1161282679#2 -1161282679#3" arrivalPos="62.18" />
    </person>
    <person id="tp4328" depart="29549.64" departPos="random">
        <ride from="191377224#0" to="519913265#1" arrivalPos="10.00" lines="taxi" />
        <walk edges="519913265#1 519913265#0 903531446" arrivalPos="6.08" />
    </person>
    <person id="tp4840" depart="29561.57" departPos="random">
        <ride from="-1158102646" to="25412019" arrivalPos="14.90" lines="taxi" />
        <walk edges="25412019 25412020#0 152516783#4 152516783#3 152516783#2 152516783#1" arrivalPos="44.05" />
    </person>
    <person id="tp1415" depart="29585.92" departPos="random">
        <ride from="-56240189#2" to="740109140" arrivalPos="20.48" lines="taxi" />
        <walk edges="740109140 -196520689#0" arrivalPos="25.03" />
    </person>
    <person id="tp1258" depart="29586.61" departPos="random">
        <ride from="56240279#1" to="-25303488#4" arrivalPos="184.55" lines="taxi" />
        <walk edges="-25303488#4 1068735334 69347933#0 -69347933#1" arrivalPos="161.56" />
    </person>
    <person id="tp3018" depart="29588.38" departPos="random">
        <ride from="1467922382" to="209755663#3" arrivalPos="2.55" lines="taxi" />
        <walk edges="209755663#3 209755663#2 -209755663#0 1317098557 -58413641 -150335026#4 150335026#3 -150335026#2 150335026#1 150335026#0" arrivalPos="5.69" />
    </person>
    <person id="tp532" depart="29600.84" departPos="random">
        <ride from="59637812#10" to="-1443580513#2" arrivalPos="13.80" lines="taxi" />