<?xml version="1.0" encoding="UTF-8"?>

<!-- generated by Eclipse SUMO duarouter 1.26.0
<duarouterConfiguration xmlns:xsi="http://www.w3.org/2001/XMLSchema-instance" xsi:noNamespaceSchemaLocation="http://sumo.dlr.de/xsd/duarouterConfiguration.xsd">

    <input>
        <net-file value="D:\Dokumente\sumo\maloja\simple.net.xml"/>
        <additional-files value="D:\Dokumente\sumo\maloja\taz_maloja_simple.add.xml,D:\Dokumente\sumo\maloja\04_shopping\taz_shopping.add.xml,D:\Dokumente\sumo\maloja\03_bus\virtualstop.add.xml,D:\Dokumente\sumo\maloja\03_bus\03_November\vtypes.xml,D:\Dokumente\sumo\maloja\03_bus\03_November\gtfs_pt_stops.add.xml"/>
        <route-files value="D:\Dokumente\sumo\maloja\04_shopping\persontrips_maloja_shopping.xml,D:\Dokumente\sumo\maloja\03_bus\03_November\gtfs_pt_vehicles.add.xml"/>
    </input>

    <output>
        <output-file value="D:\Dokumente\sumo\maloja\04_shopping\persontrips_maloja_shopping_offseason_bus_resolved.rou.xml"/>
    </output>

    <processing>
        <persontrip.transfer.taxi-walk value="ptStops"/>
        <persontrip.transfer.walk-taxi value="ptStops"/>
    </processing>

    <report>
        <verbose value="true"/>
    </report>

</duarouterConfiguration>
-->

<routes xmlns:xsi="http://www.w3.org/2001/XMLSchema-instance" xsi:noNamespaceSchemaLocation="http://sumo.dlr.de/xsd/routes_file.xsd">
    <person id="27" depart="28958.69" departPos="random">
        <walk edges="171771428#3 -171771428#3 171771398 -889967615 -171771447#5 171771447#4 -171771447#3 171771447#2 171771447#1 -41157381 120839520 62065386" busStop="1.TA.96-290-3-j24-1.1.H.0"/> <!-- Soglio, Villaggio -->
        <ride busStop="1.TA.96-290-3-j24-1.1.H.4" intended="4.TA.96-290-3-j24-1.1.H.0" depart="29570.00"/> <!-- Promontogno, Posta -->
        <walk edges="120829159" busStop="14.TA.96-290-0-j24-1.25.H.11"/> <!-- Promontogno, Posta -->
        <ride busStop="36.TA.96-290-0-j24-1.27.R.12" intended="48.TA.96-290-0-j24-1.17.R.0" depart="30830.00"/> <!-- Maloja, Cad'Maté -->
        <walk edges="977972909 -315159485#0 -315159485#1 315159485#2 315159485#3 315159485#4 -315159485#5 -315159485#6 1068729371#0 -1068729371#1 -1068729371#2 170952349#0 -170952349#1 -977972910" busStop="1136.TA.92-10-J-j24-1.22.R.0"/> <!-- Maloja, Posta -->
        <ride busStop="2467.TA.92-1-N-j24-1.95.R.3" intended="48.TA.96-290-0-j24-1.17.R.0" depart="33050.00"/> <!-- Silvaplana, Rundella Curtins -->
        <ride busStop="1679.TA.92-1-N-j24-1.90.R.1" intended="2467.TA.92-1-N-j24-1.95.R.0" depart="34370.00"/> <!-- St. Moritz Bad, Hallenbad -->
        <ride busStop="1679.TA.92-1-N-j24-1.90.R.2" intended="666.TA.92-9-H-j24-1.10.H.0" depart="34790.00"/> <!-- St. Moritz Bad, Sonne -->
        <ride busStop="1679.TA.92-1-N-j24-1.90.R.3" intended="2467.TA.92-1-N-j24-1.95.R.0" depart="34910.00"/> <!-- St. Moritz Bad, Kath. Kirche -->
        <walk edges="-30957915 51814854 -89726026#0 -89726026#1 89726026#2 89726026#3 -1113136564#0 -1113136564#1 14014143#0 14014143#1" arrivalPos="134.62"/>
    </person>
    <person id="166" depart="29015.86" departPos="random">
        <walk edges="-926207664 -1068735336#2 -1068735336#1 1068735336#0 25303490 -152517443#2 -152517443#1" busStop="1008.TA.92-1-N-j24-1.88.H.17"/> <!-- St. Moritz, Caspar Badrutt -->
        <ride busStop="1008.TA.92-1-N-j24-1.88.H.20" intended="721.TA.92-1-N-j24-1.81.H.0" depart="29330.00"/> <!-- St. Moritz Bad, Kath. Kirche -->
        <walk edges="30957915 51814854 -89726026#0 -89726026#1 89726026#2 89726026#3 -1113136564#0 -1113136564#1 14014143#0" arrivalPos="38.72"/>
    </person>
    <person id="72" depart="29122.82" departPos="random">
        <walk edges="-30957916#2 30957916#1 -30957917#1 30957917#0 25418591#5" busStop="2467.TA.92-1-N-j24-1.95.R.1"/> <!-- Surlej, Foppas -->
        <ride busStop="2467.TA.92-1-N-j24-1.95.R.2" intended="2158.TA.92-6-I-j24-1.16.H.0" depart="29450.00"/> <!-- Surlej, Punt -->
        <walk edges="-25418588#1 19738790#1 19738790#0 -1050853679 -19738795 1086005531 1086005530 1136237769 1086005533" busStop="2467.TA.92-1-N-j24-1.95.R.3"/> <!-- Silvaplana, Rundella Curtins -->
        <ride busStop="2467.TA.92-1-N-j24-1.95.R.4" intended="61.TA.96-290-0-j24-1.30.R.0" depart="30710.00"/> <!-- St. Moritz Bad, Campingplatz -->
        <ride busStop="1679.TA.92-1-N-j24-1.90.R.1" intended="2470.TA.92-1-N-j24-1.95.R.0" depart="30950.00"/> <!-- St. Moritz Bad, Hallenbad -->
        <ride busStop="1679.TA.92-1-N-j24-1.90.R.2" intended="205.TA.92-9-H-j24-1.10.H.0" depart="31190.00"/> <!-- St. Moritz Bad, Sonne -->
        <ride busStop="1679.TA.92-1-N-j24-1.90.R.3" intended="2470.TA.92-1-N-j24-1.95.R.0" depart="31310.00"/> <!-- St. Moritz Bad, Kath. Kirche -->
        <walk edges="-30957915 51814854 -89726026#0 -89726026#1 89726026#2 -89726026#3" arrivalPos="4.91"/>
    </person>
    <person id="160" depart="29229.67" departPos="random">
        <walk edges="-819945220#2 819945220#1 819945220#0 120840708 51814854 -89726026#0 -89726026#1 89726026#2 89726026#3 -1113136564#0 -1113136564#1 14014143#0" arrivalPos="26.71"/>
    </person>
    <person id="157" depart="29264.16" departPos="random">
        <walk edges="-317053074 -382202903#1 382202903#2 -382202903#3 1441721435 -1132581922 -30957915 51814854 -89726026#0 -89726026#1 89726026#2 89726026#3 -1113136564#0 -1113136564#1 14014143#0 14014143#1" arrivalPos="89.14"/>
    </person>
    <person id="176" depart="29493.28" departPos="random">
        <walk edges="37804543#2 -37804543#1 37804543#0 -120840712#3 1068735342#0 1068735342#1 -819942945#0 819942945#2 1068735337 -152520535 819942944#2 819942944#3 -819942944#4 819945211 -1467922383 819945209 -152517443#2 -152517443#1" busStop="1008.TA.92-1-N-j24-1.88.H.17"/> <!-- St. Moritz, Caspar Badrutt -->
        <ride busStop="1008.TA.92-1-N-j24-1.88.H.20" intended="667.TA.92-6-I-j24-1.3.H.0" depart="30530.00"/> <!-- St. Moritz Bad, Kath. Kirche -->
        <walk edges="30957915 51814854 -89726026#0 -89726026#1 89726026#2 89726026#3 -1113136564#0 -1113136564#1 14014143#0 14014143#1" arrivalPos="6.59"/>
    </person>
    <person id="104" depart="29825.76" departPos="random">
        <walk edges="1161282679#5 -1161282679#4 -1161282679#3 1161282679#2 -1161282679#1 -1161282679#0 268146940#6 268146940#5 -268146940#4 268146940#3 268146940#2 -268146940#1 -268146940#0 -268146944#1 268146944#0 -25412020#0" arrivalPos="36.07"/>
    </person>
    <person id="179" depart="30036.36" departPos="random">
        <walk edges="152517443#2 -152517443#1" busStop="1008.TA.92-1-N-j24-1.88.H.17"/> <!-- St. Moritz, Caspar Badrutt -->
        <ride busStop="1008.TA.92-1-N-j24-1.88.H.20" intended="667.TA.92-6-I-j24-1.3.H.0" depart="30530.00"/> <!-- St. Moritz Bad, Kath. Kirche -->
        <walk edges="30957915 51814854 -89726026#0 -89726026#1 89726026#2 -89726026#3" arrivalPos="26.72"/>
    </person>
    <person id="99" depart="30199.14" departPos="random">
        <walk edges="1428300394 -196520689#2 -196520689#1 196520689#0 -188730896#6 188730896#5 -188730896#4 188730896#3 188730896#2 188730896#1 188730896#0 69347933#1 69347933#0 1068735334 154770319#4 -154770319#3 154770319#2 154770319#1 154770319#0 25303487#5 25303487#6 -152517715#0 -152517715#1 152517715#3" busStop="1679.TA.92-1-N-j24-1.90.R.5"/> <!-- St. Moritz Bad, Via Aruons -->
        <ride busStop="1136.TA.92-10-J-j24-1.22.R.22" intended="4666.TA.92-6-I-j24-1.34.R.0" depart="32690.00"/> <!-- St. Moritz, Schulhausplatz -->
        <walk edges="894576901#0 894576901#1 894576901#2 -25412020#0" arrivalPos="26.46"/>
    </person>
    <person id="127" depart="30393.62" departPos="random">
        <walk edges="152517715#1 -152517715#0 25303487#6 25303487#5 -25303487#4" busStop="1008.TA.92-1-N-j24-1.88.H.19"/> <!-- St. Moritz Bad, Via Salet -->
        <ride busStop="1008.TA.92-1-N-j24-1.88.H.20" intended="667.TA.92-6-I-j24-1.3.H.0" depart="30650.00"/> <!-- St. Moritz Bad, Kath. Kirche -->
        <walk edges="30957915 51814854 -89726026#0 -89726026#1 89726026#2 -89726026#3" arrivalPos="80.45"/>
    </person>
    <person id="286" depart="30906.36" departPos="random">
        <walk edges="14014143#0 -1113136564#1 -1113136564#0 -89726026#3" busStop="114.TA.92-9-H-j24-1.10.H.3"/> <!-- St. Moritz Bad, Reithalle -->
        <ride busStop="114.TA.92-9-H-j24-1.10.H.4" intended="205.TA.92-9-H-j24-1.10.H.0" depart="31010.00"/> <!-- St. Moritz Bad, Post -->
        <ride busStop="1008.TA.92-1-N-j24-1.88.H.25" intended="198.TA.96-260-1-j24-1.12.R.0" depart="31250.00"/> <!-- St. Moritz Bad, Campingplatz -->
        <ride busStop="1008.TA.92-1-N-j24-1.88.H.26" intended="1153.TA.92-1-N-j24-1.89.H.0" depart="31610.00"/> <!-- Silvaplana, Rundella Curtins -->
        <ride busStop="459.TA.92-10-J-j24-1.71.H.34" intended="980.TA.92-2-L-j24-1.15.H.0" depart="31970.00"/> <!-- Maloja, Posta -->
        <walk edges="894576903 -170952349#1 170952349#0 1068729371#2 -1068729371#1 1068729371#0 315159485#6 -315159485#5 -315159485#4 315159485#3 -315159485#2 -315159485#1 315159485#0 -977972909 -501346489#2" busStop="16.TA.96-290-0-j24-1.26.H.1"/> <!-- Maloja, Cad'Maté -->
        <ride busStop="14.TA.96-290-0-j24-1.25.H.12" intended="21.TA.96-290-0-j24-1.10.H.0" depart="35270.00"/> <!-- Castasegna, Dogana nuova -->
        <walk edges="391661586 128157724#0 128157724#1 -1162541061#0 1162541061#1 -1162541061#2 -1162541061#3 -1162541061#4 222975197#2 -222975197#2" arrivalPos="0.16"/>
    </person>
    <person id="55" depart="30915.84" departPos="random">
        <walk edges="-56240189#2 -56240189#3 56240189#4 -56240189#5 56240189#7 -56240189#8 56240189#9 -973459742#0 -973459742#1 973459742#2 973459742#3 -888425580#0 150335026#0 150335026#1 -150335026#2 150335026#3 -150335026#4 -58413641 -58413640#0 -209755663#0 209755663#2 209755663#3" busStop="1136.TA.92-10-J-j24-1.22.R.5"/> <!-- Sils/Segl Maria, Posta -->
        <ride busStop="2467.TA.92-1-N-j24-1.95.R.3" intended="2203.TA.92-2-L-j24-1.38.R.0" depart="31970.00"/> <!-- Silvaplana, Rundella Curtins -->
        <ride busStop="1679.TA.92-1-N-j24-1.90.R.1" intended="3050.TA.92-1-N-j24-1.101.R.0" depart="32570.00"/> <!-- St. Moritz Bad, Hallenbad -->
        <ride busStop="1679.TA.92-1-N-j24-1.90.R.2" intended="712.TA.92-9-H-j24-1.10.H.0" depart="32990.00"/> <!-- St. Moritz Bad, Sonne -->
        <ride busStop="1679.TA.92-1-N-j24-1.90.R.3" intended="3050.TA.92-1-N-j24-1.101.R.0" depart="33110.00"/> <!-- St. Moritz Bad, Kath. Kirche -->
        <walk edges="-30957915 51814854 -89726026#0 -89726026#1 89726026#2 -89726026#3" arrivalPos="72.66"/>
    </person>
    <person id="31" depart="30938.70" departPos="random">
        <walk edges="56085325#0 -52959697#3 -52959697#2 52959697#1 52959697#0 1201541125 -150277078#5 150277078#4 -56195874#7 56195874#6 -239035118#5" arrivalPos="7.75"/>
    </person>
    <person id="351" depart="30939.76" departPos="random">
        <walk edges="14014143#0 -120840705#1 120840705#2 -120840705#3 -120840705#4 -1113054108#1 1113054108#0 152331922#1 152331922#0 -1113054109 -819945212 819945211 -1467922383 819945210#0 41595601#0 -41595601#2 41595601#3 41595601#4 -41595601#5 -1005052428#1 -1005052428#2 819942942#0 152390930#1 -1005048061#2 1005048061#1 -1005048061#0 1005048062#1 578147406" arrivalPos="15.21"/>
    </person>
    <person id="45" depart="30960.73" departPos="random">
        <walk edges="56195874#5 -239035118#5" arrivalPos="9.42"/>
    </person>
    <person id="131" depart="30962.87" departPos="random">
        <walk edges="-188731354#1 -1428300393#0 1188934794 188730896#1 188730896#0 69347933#1 69347933#0 1068735334 154770319#4 -154770319#3 154770319#2 154770319#1 154770319#0 -25303487#4" busStop="1008.TA.92-1-N-j24-1.88.H.19"/> <!-- St. Moritz Bad, Via Salet -->
        <ride busStop="1008.TA.92-1-N-j24-1.88.H.20" intended="679.TA.92-6-I-j24-1.3.H.0" depart="32450.00"/> <!-- St. Moritz Bad, Kath. Kirche -->
        <walk edges="30957915 51814854 -89726026#0 -89726026#1 89726026#2 89726026#3 -1113136564#0 -1113136564#1 14014143#0" arrivalPos="14.38"/>
    </person>
    <person id="26" depart="31079.74" departPos="random">
        <walk edges="502426858 633986854#1" busStop="36.TA.96-290-0-j24-1.27.R.10"/> <!-- Casaccia, Villaggio -->
        <ride busStop="36.TA.96-290-0-j24-1.27.R.12" intended="48.TA.96-290-0-j24-1.17.R.0" depart="32030.00"/> <!-- Maloja, Cad'Maté -->
        <walk edges="977972909 -315159485#0 -315159485#1 315159485#2 315159485#3 315159485#4 -315159485#5 -315159485#6 1068729371#0 -1068729371#1 -1068729371#2 170952349#0 -170952349#1 -977972910" busStop="1136.TA.92-10-J-j24-1.22.R.0"/> <!-- Maloja, Posta -->
        <ride busStop="2467.TA.92-1-N-j24-1.95.R.3" intended="48.TA.96-290-0-j24-1.17.R.0" depart="33050.00"/> <!-- Silvaplana, Rundella Curtins -->
        <ride busStop="1679.TA.92-1-N-j24-1.90.R.0" intended="2467.TA.92-1-N-j24-1.95.R.0" depart="34370.00"/> <!-- St. Moritz Bad, Via San Gian -->
        <walk edges="170952324#1 -170952324#1" busStop="1008.TA.92-1-N-j24-1.88.H.23"/> <!-- St. Moritz Bad, Via San Gian -->
        <ride busStop="1679.TA.92-1-N-j24-1.90.R.2" intended="666.TA.92-9-H-j24-1.10.H.0" depart="34790.00"/> <!-- St. Moritz Bad, Sonne -->
        <ride busStop="1679.TA.92-1-N-j24-1.90.R.3" intended="2467.TA.92-1-N-j24-1.95.R.0" depart="34910.00"/> <!-- St. Moritz Bad, Kath. Kirche -->
        <walk edges="-30957915 51814854 -89726026#0 -89726026#1 89726026#2 89726026#3 -1113136564#0 -1113136564#1 14014143#0" arrivalPos="3.27"/>
    </person>
    <person id="22" depart="31113.27" departPos="random">
        <walk edges="1426892794#1 1426892794#0 -391649038#1 -391649038#2 1426892796 1426892784 1426892782 472298258 1104477696 -171771381#0 171771381#1 -171771381#2 23844223 -23844224 -120840218#0 120840218#1 -120840218#2 -120840218#3 -120840218#4 391657349 502426851#0 -391657350#0 391657350#1 -502426852#0 -502426852#1 502426852#2 -502426852#3 -1083276369#0 -1083276369#1 1083276369#2 1083276369#3" busStop="36.TA.96-290-0-j24-1.27.R.4"/> <!-- Stampa, Villaggio -->
        <ride busStop="36.TA.96-290-0-j24-1.27.R.5" intended="55.TA.96-290-0-j24-1.29.R.0" depart="34550.00"/> <!-- Vicosoprano, Helvetia -->
        <walk edges="502426855#1 -502426855#2 -1083276373 -1169006585 31060929#0 -31060929#1 -31060929#2 1101989249" arrivalPos="23.06"/>
    </person>
    <person id="268" depart="31121.70" departPos="random">
        <walk edges="-25412020#0 25412020#0 25412019 152337236#1 -41595601#5 41595601#4 41595601#3 -41595601#2 41595601#0 819945210#0 -1467922383 819945211 -819942944#4" busStop="1679.TA.92-1-N-j24-1.90.R.6"/> <!-- St. Moritz, Schulhausplatz -->
        <ride busStop="1008.TA.92-1-N-j24-1.88.H.14" intended="2470.TA.92-1-N-j24-1.95.R.0" depart="31730.00"/> <!-- St. Moritz, Bahnhof -->
        <walk edges="519913263#1 519913263#0 897592613 904728442 531892740#0 531892740#1" arrivalPos="14.81"/>
    </person>
    <person id="3" depart="31307.60" departPos="random">
        <walk edges="-391657351 502426854 1083276370 -502426853 -391657356 1083276369#2 1083276369#1 1083276369#0 -502426852#3 502426852#2 502426852#1 -502426852#0 -391657350#1 -391657350#0 -502426851#0" busStop="16.TA.96-290-0-j24-1.26.H.14"/> <!-- Stampa, Palù -->
        <ride busStop="14.TA.96-290-0-j24-1.25.H.11" intended="29.TA.96-290-0-j24-1.10.H.0" depart="33230.00"/> <!-- Promontogno, Posta -->
        <walk edges="120829159 1083356001 120839519#1" arrivalPos="22.31"/>
    </person>
    <person id="215" depart="31377.22" departPos="random">
        <walk edges="-239035118#5 56195874#6 -56195874#7 -150277078#3 -150277078#2 150277078#1 256959702#3 -256959702#2 -256959702#1 -256959702#0 -1068735318#2 -1068735318#1 1068735318#0 96461185 -209755663#4 209755663#3 209755663#2 -209755663#0 1317098557 -58413641 -150335026#4 150335026#3 -150335026#2 150335026#1 150335026#0 -888425580#0 973459742#3 973459742#2 -973459742#1 -973459742#0 56240189#9 -56240189#8 -56240189#7" busStop="459.TA.92-10-J-j24-1.71.H.30"/> <!-- Sils/Segl Baselgia, Biblioteca -->
        <ride busStop="459.TA.92-10-J-j24-1.71.H.32" intended="980.TA.92-2-L-j24-1.15.H.0" depart="32630.00"/> <!-- Plaun da Lej -->
        <walk edges="208825826 -208825827#0 -208825827#2" arrivalPos="2.33"/>
    </person>
    <person id="195" depart="31470.35" departPos="random">
        <walk edges="-1068729371#2 170952349#0 -170952349#1 -25418325#0 -25418325#1 -1136143562#1 1136143562#0 185845833#3 -185845833#1 -185845833#0 -501346488#2 -501346488#1 -501346488#0 -315159494#2 315159494#1 -1136215938 315159496#3 315159496#2 315159496#1 -890627011" arrivalPos="32.38"/>
    </person>
    <person id="140" depart="31504.36" departPos="random">
        <walk edges="-578147406 -268146940#1 -268146940#0 -268146944#1 268146944#0 25412020#0 25412019" busStop="262.TA.92-10-J-j24-1.4.H.10"/> <!-- St. Moritz, Schulhausplatz -->
        <ride busStop="1008.TA.92-1-N-j24-1.88.H.20" intended="2215.TA.92-6-I-j24-1.16.H.0" depart="31730.00"/> <!-- St. Moritz Bad, Kath. Kirche -->
        <walk edges="30957915 51814854 -89726026#0 -89726026#1 89726026#2 89726026#3 -1113136564#0 -1113136564#1 14014143#0 14014143#1" arrivalPos="46.39"/>
    </person>
    <person id="154" depart="31668.27" departPos="random">
        <walk edges="25303487#4 -25303487#4" busStop="1008.TA.92-1-N-j24-1.88.H.19"/> <!-- St. Moritz Bad, Via Salet -->
        <ride busStop="1008.TA.92-1-N-j24-1.88.H.20" intended="2215.TA.92-6-I-j24-1.16.H.0" depart="31850.00"/> <!-- St. Moritz Bad, Kath. Kirche -->
        <walk edges="30957915 51814854 -89726026#0 -89726026#1 89726026#2 89726026#3 -1113136564#0 -1113136564#1 14014143#0" arrivalPos="34.43"/>
    </person>
    <person id="255" depart="31779.45" departPos="random">
        <walk edges="-25412020#0 25412020#0 894576901#2 894576901#1 -41595603#2 819942940#0 -819942942#0" arrivalPos="13.40"/>
    </person>
    <person id="163" depart="31837.56" departPos="random">
        <walk edges="30957906 -1493002173 -30952515#1 -30952515#0" busStop="2386.TA.92-1-N-j24-1.93.R.1"/> <!-- Champfèr, Schulhaus -->
        <ride busStop="1679.TA.92-1-N-j24-1.90.R.3" intended="4666.TA.92-6-I-j24-1.34.R.0" depart="32090.00"/> <!-- St. Moritz Bad, Kath. Kirche -->
        <walk edges="-30957915 51814854 -89726026#0 -89726026#1 89726026#2 89726026#3 -1113136564#0 -1113136564#1 14014143#0" arrivalPos="44.80"/>
    </person>
    <person id="187" depart="31898.74" departPos="random">
        <walk edges="120839519#1 614559903 171771430 550605634#1 550605634#0 -1083351547 -522703193 1083351548 -171771384#1 -171771384#0 -171771450#0 31060954#0 -120840218#0 120840218#1 -120840218#2 -120840218#3 -120840218#4 391657349 502426851#0" busStop="48.TA.96-290-0-j24-1.17.R.4"/> <!-- Stampa, Palù -->
        <ride busStop="48.TA.96-290-0-j24-1.17.R.10" intended="55.TA.96-290-0-j24-1.29.R.0" depart="34490.00"/> <!-- Vicosoprano, Camping -->
        <walk edges="1083273108#2 123066460 1083299692 1083273109" arrivalPos="44.73"/>
    </person>
    <person id="290" depart="32163.96" departPos="random">
        <walk edges="14014143#1 14014143#0 -1113136564#1 -1113136564#0 89726026#3 89726026#2 -89726026#1 -89726026#0 51814854 30957915" busStop="1008.TA.92-1-N-j24-1.88.H.20"/> <!-- St. Moritz Bad, Kath. Kirche -->
        <ride busStop="2386.TA.92-1-N-j24-1.93.R.0" intended="679.TA.92-6-I-j24-1.3.H.0" depart="32510.00"/> <!-- Champfèr, Guardalej -->
        <walk edges="1068735330#7 -1068735330#5 1068735330#4 -1068735330#2 -1068735330#1" busStop="459.TA.92-10-J-j24-1.71.H.21"/> <!-- Champfèr, Guardalej -->
        <ride busStop="459.TA.92-10-J-j24-1.71.H.34" intended="3.TA.96-290-0-j24-1.2.H.0" depart="33050.00"/> <!-- Maloja, Posta -->
        <walk edges="894576903 -170952349#1 170952349#0 1068729371#2 -1068729371#1 1068729371#0 315159485#6 -315159485#5 -315159485#4 315159485#3 -315159485#2 -315159485#1 315159485#0 -977972909 -501346489#2" busStop="16.TA.96-290-0-j24-1.26.H.1"/> <!-- Maloja, Cad'Maté -->
        <ride busStop="14.TA.96-290-0-j24-1.25.H.12" intended="21.TA.96-290-0-j24-1.10.H.0" depart="35270.00"/> <!-- Castasegna, Dogana nuova -->
        <walk edges="391661586 128157724#0 128157724#1 -1162541061#0 1162541061#1 -1162541061#2 -1162541061#3 -186947410#0" arrivalPos="39.25"/>
    </person>
    <person id="71" depart="32165.36" departPos="random">
        <walk edges="-679130967#0 -25475987#1 25475987#0 30957917#0 -30957917#1 -96461188 -187633173#1 -187633173#0 187633169#4 187633169#3 -187633169#2 -187633169#1 -187633169#0 -1050853680 -25418588#1 19738790#1 19738790#0 -1050853679 -19738795 1086005531 1086005530 1136237769 1086005533" busStop="2467.TA.92-1-N-j24-1.95.R.3"/> <!-- Silvaplana, Rundella Curtins -->
        <ride busStop="1679.TA.92-1-N-j24-1.90.R.1" intended="2467.TA.92-1-N-j24-1.95.R.0" depart="34370.00"/> <!-- St. Moritz Bad, Hallenbad -->
        <ride busStop="1679.TA.92-1-N-j24-1.90.R.2" intended="666.TA.92-9-H-j24-1.10.H.0" depart="34790.00"/> <!-- St. Moritz Bad, Sonne -->
        <ride busStop="1679.TA.92-1-N-j24-1.90.R.3" intended="2467.TA.92-1-N-j24-1.95.R.0" depart="34910.00"/> <!-- St. Moritz Bad, Kath. Kirche -->
        <walk edges="-30957915 51814854 -89726026#0 -89726026#1 89726026#2 89726026#3 -1113136564#0 -1113136564#1 14014143#0 14014143#1" arrivalPos="82.24"/>
    </person>
    <person id="29" depart="32263.84" departPos="random">
        <walk edges="171771388#3 171771388#2 1426892793#0 -1426892793#1 -391649038#1 -391649038#2 1426892796 1426892784 1426892791 1426892783 1426892797 -1024855417 -1426892804 1424064286 -550605628 -550605631 -120829160 120839519#1 1083356001 120829159" busStop="14.TA.96-290-0-j24-1.25.H.11"/> <!-- Promontogno, Posta -->
        <ride busStop="2467.TA.92-1-N-j24-1.95.R.3" intended="55.TA.96-290-0-j24-1.29.R.0" depart="34310.00"/> <!-- Silvaplana, Rundella Curtins -->
        <ride busStop="1.TA.92-4-Q-j24-1.7.R.12" intended="41.TA.96-290-0-j24-1.35.R.0" depart="37550.00"/> <!-- St. Moritz Bad, Reithalle -->
        <walk edges="1113136564#0 -1113136564#1 14014143#0" arrivalPos="12.87"/>
    </person>
    <person id="34" depart="32473.54" departPos="random">
        <walk edges="208825827#5 -208825827#4 -208825827#3 208825827#2 -208825827#0 -1086010096" busStop="1136.TA.92-10-J-j24-1.22.R.2"/> <!-- Plaun da Lej -->
        <ride busStop="1136.TA.92-10-J-j24-1.22.R.6" intended="48.TA.96-290-0-j24-1.17.R.0" depart="33230.00"/> <!-- Sils/Segl Maria, Seglias -->
        <walk edges="1472605488#2 1472605488#1 1472605488#0 -150277078#5 150277078#4 -56195874#7 56195874#6 -239035118#5" arrivalPos="0.54"/>
    </person>
    <person id="117" depart="32585.92" departPos="random">
        <walk edges="916468196#1 916468196#0 631302139#4 -631302139#3 631302139#2 -631302139#1 -631302139#0 120840705#7 -120840705#6 120840705#5 -120840705#4 -120840705#3 120840705#2 120840705#1 -1113136564#1 -1113136564#0 -89726026#3" arrivalPos="32.58"/>
    </person>
    <person id="288" depart="32821.78" departPos="random">
        <walk edges="14014143#1 14014143#0 -1113136564#1 -1113136564#0 89726026#3 89726026#2 -89726026#1 -89726026#0 51814854 30957915 -1132581922 1441721435 -382202904#4 382202904#3 -382202904#2 -382202904#1 382202904#0 -170952322#1" busStop="114.TA.92-9-H-j24-1.10.H.4"/> <!-- St. Moritz Bad, Post -->
        <ride busStop="1008.TA.92-1-N-j24-1.88.H.25" intended="305.TA.96-260-1-j24-1.21.R.0" depart="33650.00"/> <!-- St. Moritz Bad, Campingplatz -->
        <ride busStop="1008.TA.92-1-N-j24-1.88.H.26" intended="1564.TA.92-1-N-j24-1.89.H.0" depart="35210.00"/> <!-- Silvaplana, Rundella Curtins -->
        <ride busStop="459.TA.92-10-J-j24-1.71.H.34" intended="948.TA.92-2-L-j24-1.15.H.0" depart="35570.00"/> <!-- Maloja, Posta -->
        <walk edges="894576903 -170952349#1 170952349#0 1068729371#2 -1068729371#1 1068729371#0 315159485#6 -315159485#5 -315159485#4 315159485#3 -315159485#2 -315159485#1 315159485#0 -977972909 501346489#2 -501346489#1 501346489#0" arrivalPos="12.26"/>
    </person>
    <person id="125" depart="32835.02" departPos="random">
        <walk edges="-1068735332#1 1068735332#1 -1068735332#0 -1068735333 25303488#4 154770319#4 -154770319#3 154770319#2 154770319#1 154770319#0 -25303487#4" busStop="1008.TA.92-1-N-j24-1.88.H.19"/> <!-- St. Moritz Bad, Via Salet -->
        <ride busStop="1008.TA.92-1-N-j24-1.88.H.20" intended="1564.TA.92-1-N-j24-1.89.H.0" depart="34850.00"/> <!-- St. Moritz Bad, Kath. Kirche -->
        <walk edges="30957915 51814854 -89726026#0 -89726026#1 89726026#2 89726026#3 -1113136564#0 -1113136564#1 14014143#0 14014143#1" arrivalPos="24.04"/>
    </person>
    <person id="180" depart="32903.74" departPos="random">
        <walk edges="268146971#3 -268146971#2 -268146971#1 268146971#0 769993301#2 769993301#1 769993301#0 19724261 170952324#0 170952324#1 170952324#2 -170952324#3 -170952324#5 170952322#0 -170952322#1 382202904#0 -382202904#1 -382202904#2 382202904#3 -382202904#4 1441721435 -1132581922 -30957915 51814854 -89726026#0 -89726026#1 89726026#2 -89726026#3" arrivalPos="103.28"/>
    </person>
    <person id="338" depart="32944.55" departPos="random">
        <walk edges="-89726026#3 89726026#3 89726026#2 -89726026#1 -89726026#0 51814854 120840708 819945220#0 819945220#1 -819945220#2 96461180#0 -96461180#1 96461180#3 -96461180#4 88723957#0" arrivalPos="0.58"/>
    </person>
    <person id="206" depart="32968.91" departPos="random">
        <walk edges="1101989249 -31060929#2 -31060929#1 31060929#0 1169006585 1083276373 120840215" arrivalPos="18.58"/>
    </person>
    <person id="79" depart="32975.39" departPos="random">
        <walk edges="30957933 -30957932#3 30957932#2 -30957932#1 30957932#0 -187633173#1 -187633173#0 187633169#4 -187633169#3" busStop="10.TA.92-20-E-j24-1.1.H.8"/> <!-- Surlej, Islas -->
        <ride busStop="2467.TA.92-1-N-j24-1.95.R.2" intended="34.TA.92-20-E-j24-1.2.R.0" depart="33650.00"/> <!-- Surlej, Punt -->
        <walk edges="-25418588#1 19738790#1 19738790#0 -1050853679 -19738795 1086005531 1086005530 1136237769 1086005533" busStop="2467.TA.92-1-N-j24-1.95.R.3"/> <!-- Silvaplana, Rundella Curtins -->
        <ride busStop="1679.TA.92-1-N-j24-1.90.R.1" intended="2467.TA.92-1-N-j24-1.95.R.0" depart="34370.00"/> <!-- St. Moritz Bad, Hallenbad -->
        <ride busStop="1679.TA.92-1-N-j24-1.90.R.2" intended="666.TA.92-9-H-j24-1.10.H.0" depart="34790.00"/> <!-- St. Moritz Bad, Sonne -->
        <ride busStop="1679.TA.92-1-N-j24-1.90.R.3" intended="2467.TA.92-1-N-j24-1.95.R.0" depart="34910.00"/> <!-- St. Moritz Bad, Kath. Kirche -->
        <walk edges="-30957915 51814854 -89726026#0 -89726026#1 89726026#2 89726026#3 -1113136564#0 -1113136564#1 14014143#0 14014143#1" arrivalPos="50.06"/>
    </person>
    <person id="85" depart="33017.02" departPos="random">
        <walk edges="47578286 1068735342#0 1068735342#1 -819942945#0 819942945#2 1068735337 -152520535 819942944#2 819942944#3 -819942944#4 819945211 -1467922383 819945210#0 41595601#0 -41595601#2 41595601#3 41595601#4 -41595601#5 152337236#1 25412019 -25412020#0" arrivalPos="6.28"/>
    </person>
    <person id="69" depart="33094.93" departPos="random">
        <walk edges="187198083#3 -187198083#3 187198083#5 187198083#6 -187198083#7 31061888#1 -116715858" arrivalPos="4.54"/>
    </person>
    <person id="14" depart="33157.33" departPos="random">
        <walk edges="-171771383 550605634#0 -550605634#1 -171771430 520821161#1 520821161#0 -1083356000 120829159" busStop="14.TA.96-290-0-j24-1.25.H.11"/> <!-- Promontogno, Posta -->
        <ride busStop="36.TA.96-290-0-j24-1.27.R.5" intended="55.TA.96-290-0-j24-1.29.R.0" depart="34310.00"/> <!-- Vicosoprano, Helvetia -->
        <walk edges="502426855#1 -502426855#2 -1083276373 -1169006585 31060929#0 -31060929#1 -31060929#2 1101989249" arrivalPos="10.83"/>
    </person>
    <person id="340" depart="33179.81" departPos="random">
        <walk edges="14014143#1 14014143#0 -120840705#1 120840705#2 -120840705#3 -120840705#4 -1113054108#1 1113054108#0 152331922#1 152331922#0 -1113054109 -819945212 819945211 -1467922383 819945210#0 819945210#1 1467922382" arrivalPos="4.71"/>
    </person>
    <person id="371" depart="33182.75" departPos="random">
        <walk edges="14014143#1 14014143#0 -120840705#1 120840705#2 -120840705#3 -120840705#4 -1113054108#1 1113054108#0 152331922#1 152331922#0 -1113054109 -819945212 819945211 -1467922383 819945210#0 41595601#0 -41595601#2 41595601#3 41595601#4 -41595601#5 -1005052428#1 -1005052428#2 819942942#0 152390930#1 -1005048061#2 1005048061#1 -1005048061#0 1005048062#1 -578147406 -268146940#2 268146940#3 -268146940#4 -268146940#5 268146940#6 -1161282679#0" arrivalPos="2.30"/>
    </person>
    <person id="53" depart="33320.00" departPos="random">
        <walk edges="-256959702#2 -150277078#0 150277078#1 -150277078#2 -150277078#3 150277078#4 -150277078#5 -1472605488#0 1472605488#1 1472605488#2" busStop="1136.TA.92-10-J-j24-1.22.R.6"/> <!-- Sils/Segl Maria, Seglias -->
        <ride busStop="2467.TA.92-1-N-j24-1.95.R.3" intended="48.TA.96-290-0-j24-1.17.R.0" depart="33830.00"/> <!-- Silvaplana, Rundella Curtins -->
        <ride busStop="1679.TA.92-1-N-j24-1.90.R.1" intended="2467.TA.92-1-N-j24-1.95.R.0" depart="34370.00"/> <!-- St. Moritz Bad, Hallenbad -->
        <ride busStop="1679.TA.92-1-N-j24-1.90.R.2" intended="666.TA.92-9-H-j24-1.10.H.0" depart="34790.00"/> <!-- St. Moritz Bad, Sonne -->
        <ride busStop="1679.TA.92-1-N-j24-1.90.R.3" intended="2467.TA.92-1-N-j24-1.95.R.0" depart="34910.00"/> <!-- St. Moritz Bad, Kath. Kirche -->
        <walk edges="-30957915 51814854 -89726026#0 -89726026#1 89726026#2 89726026#3 -1113136564#0 -1113136564#1 14014143#0" arrivalPos="12.13"/>
    </person>
    <person id="353" depart="33322.51" departPos="random">
        <walk edges="-89726026#3 89726026#3 89726026#2 -89726026#1 -89726026#0 51814854 30957915" busStop="1008.TA.92-1-N-j24-1.88.H.20"/> <!-- St. Moritz Bad, Kath. Kirche -->