<routes xmlns:xsi="http://www.w3.org/2001/XMLSchema-instance" xsi:noNamespaceSchemaLocation="http://sumo.dlr.de/xsd/routes_file.xsd">
    <person id="ga27" depart="28958.69" departPos="random">
        <walk edges="171771428#3 -171771428#3 171771398 -889967615 -171771447#5 171771447#4 -171771447#3 171771447#2 171771447#1 -41157381 120839520 62065386" busStop="1.TA.96-290-3-j24-1.1.H.0" /> 
        <ride busStop="1.TA.96-290-3-j24-1.1.H.4" intended="4.TA.96-290-3-j24-1.1.H.0" depart="29570.00" /> 
        <walk edges="120829159" busStop="14.TA.96-290-0-j24-1.25.H.11" /> 
        <ride busStop="36.TA.96-290-0-j24-1.27.R.12" intended="48.TA.96-290-0-j24-1.17.R.0" depart="30830.00" /> 
        <walk edges="977972909 -315159485#0 -315159485#1 315159485#2 315159485#3 315159485#4 -315159485#5 -315159485#6 1068729371#0 -1068729371#1 -1068729371#2 170952349#0 -170952349#1 -977972910" busStop="1136.TA.92-10-J-j24-1.22.R.0" /> 
        <ride busStop="2467.TA.92-1-N-j24-1.95.R.3" intended="48.TA.96-290-0-j24-1.17.R.0" depart="33050.00" /> 
        <ride busStop="1679.TA.92-1-N-j24-1.90.R.1" intended="2467.TA.92-1-N-j24-1.95.R.0" depart="34370.00" /> 
        <ride busStop="1679.TA.92-1-N-j24-1.90.R.2" intended="666.TA.92-9-H-j24-1.10.H.0" depart="34790.00" /> 
        <ride busStop="1679.TA.92-1-N-j24-1.90.R.3" intended="2467.TA.92-1-N-j24-1.95.R.0" depart="34910.00" /> 
        <walk edges="-30957915 51814854 -89726026#0 -89726026#1 89726026#2 89726026#3 -1113136564#0 -1113136564#1 14014143#0 14014143#1" arrivalPos="134.62" />
    </person>
    <person id="gb27" depart="28958.69" departPos="random">
        <walk edges="171771428#3 -171771428#3 171771398 -889967615 -171771447#5 171771447#4 -171771447#3 171771447#2 171771447#1 -41157381 120839520 62065386" busStop="1.TA.96-290-3-j24-1.1.H.0" /> 
        <ride busStop="1.TA.96-290-3-j24-1.1.H.4" intended="4.TA.96-290-3-j24-1.1.H.0" depart="29570.00" /> 
        <walk edges="120829159" busStop="14.TA.96-290-0-j24-1.25.H.11" /> 
        <ride busStop="36.TA.96-290-0-j24-1.27.R.12" intended="48.TA.96-290-0-j24-1.17.R.0" depart="30830.00" /> 
        <walk edges="977972909 -315159485#0 -315159485#1 315159485#2 315159485#3 315159485#4 -315159485#5 -315159485#6 1068729371#0 -1068729371#1 -1068729371#2 170952349#0 -170952349#1 -977972910" busStop="1136.TA.92-10-J-j24-1.22.R.0" /> 
        <ride busStop="2467.TA.92-1-N-j24-1.95.R.3" intended="48.TA.96-290-0-j24-1.17.R.0" depart="33050.00" /> 
        <ride busStop="1679.TA.92-1-N-j24-1.90.R.1" intended="2467.TA.92-1-N-j24-1.95.R.0" depart="34370.00" /> 
        <ride busStop="1679.TA.92-1-N-j24-1.90.R.2" intended="666.TA.92-9-H-j24-1.10.H.0" depart="34790.00" /> 
        <ride busStop="1679.TA.92-1-N-j24-1.90.R.3" intended="2467.TA.92-1-N-j24-1.95.R.0" depart="34910.00" /> 
        <walk edges="-30957915 51814854 -89726026#0 -89726026#1 89726026#2 89726026#3 -1113136564#0 -1113136564#1 14014143#0 14014143#1" arrivalPos="134.62" />
    </person>
    <person id="ga166" depart="29015.86" departPos="random">
        <walk edges="-926207664 -1068735336#2 -1068735336#1 1068735336#0 25303490 -152517443#2 -152517443#1" busStop="1008.TA.92-1-N-j24-1.88.H.17" /> 
        <ride busStop="1008.TA.92-1-N-j24-1.88.H.20" intended="721.TA.92-1-N-j24-1.81.H.0" depart="29330.00" /> 
        <walk edges="30957915 51814854 -89726026#0 -89726026#1 89726026#2 89726026#3 -1113136564#0 -1113136564#1 14014143#0" arrivalPos="38.72" />
    </person>
    <person id="gb166" depart="29015.86" departPos="random">
        <walk edges="-926207664 -1068735336#2 -1068735336#1 1068735336#0 25303490 -152517443#2 -152517443#1" busStop="1008.TA.92-1-N-j24-1.88.H.17" /> 
        <ride busStop="1008.TA.92-1-N-j24-1.88.H.20" intended="721.TA.92-1-N-j24-1.81.H.0" depart="29330.00" /> 
        <walk edges="30957915 51814854 -89726026#0 -89726026#1 89726026#2 89726026#3 -1113136564#0 -1113136564#1 14014143#0" arrivalPos="38.72" />
    </person>
    <person id="ga72" depart="29122.82" departPos="random">
        <walk edges="-30957916#2 30957916#1 -30957917#1 30957917#0 25418591#5" busStop="2467.TA.92-1-N-j24-1.95.R.1" /> 
        <ride busStop="2467.TA.92-1-N-j24-1.95.R.2" intended="2158.TA.92-6-I-j24-1.16.H.0" depart="29450.00" /> 
        <walk edges="-25418588#1 19738790#1 19738790#0 -1050853679 -19738795 1086005531 1086005530 1136237769 1086005533" busStop="2467.TA.92-1-N-j24-1.95.R.3" /> 
        <ride busStop="2467.TA.92-1-N-j24-1.95.R.4" intended="61.TA.96-290-0-j24-1.30.R.0" depart="30710.00" /> 
        <ride busStop="1679.TA.92-1-N-j24-1.90.R.1" intended="2470.TA.92-1-N-j24-1.95.R.0" depart="30950.00" /> 
        <ride busStop="1679.TA.92-1-N-j24-1.90.R.2" intended="205.TA.92-9-H-j24-1.10.H.0" depart="31190.00" /> 
        <ride busStop="1679.TA.92-1-N-j24-1.90.R.3" intended="2470.TA.92-1-N-j24-1.95.R.0" depart="31310.00" /> 
        <walk edges="-30957915 51814854 -89726026#0 -89726026#1 89726026#2 -89726026#3" arrivalPos="4.91" />
    </person>
    <person id="gb72" depart="29122.82" departPos="random">
        <walk edges="-30957916#2 30957916#1 -30957917#1 30957917#0 25418591#5" busStop="2467.TA.92-1-N-j24-1.95.R.1" /> 
        <ride busStop="2467.TA.92-1-N-j24-1.95.R.2" intended="2158.TA.92-6-I-j24-1.16.H.0" depart="29450.00" /> 
        <walk edges="-25418588#1 19738790#1 19738790#0 -1050853679 -19738795 1086005531 1086005530 1136237769 1086005533" busStop="2467.TA.92-1-N-j24-1.95.R.3" /> 
        <ride busStop="2467.TA.92-1-N-j24-1.95.R.4" intended="61.TA.96-290-0-j24-1.30.R.0" depart="30710.00" /> 
        <ride busStop="1679.TA.92-1-N-j24-1.90.R.1" intended="2470.TA.92-1-N-j24-1.95.R.0" depart="30950.00" /> 
        <ride busStop="1679.TA.92-1-N-j24-1.90.R.2" intended="205.TA.92-9-H-j24-1.10.H.0" depart="31190.00" /> 
        <ride busStop="1679.TA.92-1-N-j24-1.90.R.3" intended="2470.TA.92-1-N-j24-1.95.R.0" depart="31310.00" /> 
        <walk edges="-30957915 51814854 -89726026#0 -89726026#1 89726026#2 -89726026#3" arrivalPos="4.91" />
    </person>
    <person id="ga176" depart="29493.28" departPos="random">
        <walk edges="37804543#2 -37804543#1 37804543#0 -120840712#3 1068735342#0 1068735342#1 -819942945#0 819942945#2 1068735337 -152520535 819942944#2 819942944#3 -819942944#4 819945211 -1467922383 819945209 -152517443#2 -152517443#1" busStop="1008.TA.92-1-N-j24-1.88.H.17" /> 
        <ride busStop="1008.TA.92-1-N-j24-1.88.H.20" intended="667.TA.92-6-I-j24-1.3.H.0" depart="30530.00" /> 
        <walk edges="30957915 51814854 -89726026#0 -89726026#1 89726026#2 89726026#3 -1113136564#0 -1113136564#1 14014143#0 14014143#1" arrivalPos="6.59" />
    </person>
    <person id="gb176" depart="29493.28" departPos="random">
        <walk edges="37804543#2 -37804543#1 37804543#0 -120840712#3 1068735342#0 1068735342#1 -819942945#0 819942945#2 1068735337 -152520535 819942944#2 819942944#3 -819942944#4 819945211 -1467922383 819945209 -152517443#2 -152517443#1" busStop="1008.TA.92-1-N-j24-1.88.H.17" /> 
        <ride busStop="1008.TA.92-1-N-j24-1.88.H.20" intended="667.TA.92-6-I-j24-1.3.H.0" depart="30530.00" /> 
        <walk edges="30957915 51814854 -89726026#0 -89726026#1 89726026#2 89726026#3 -1113136564#0 -1113136564#1 14014143#0 14014143#1" arrivalPos="6.59" />
    </person>
    <person id="ga179" depart="30036.36" departPos="random">
        <walk edges="152517443#2 -152517443#1" busStop="1008.TA.92-1-N-j24-1.88.H.17" /> 
        <ride busStop="1008.TA.92-1-N-j24-1.88.H.20" intended="667.TA.92-6-I-j24-1.3.H.0" depart="30530.00" /> 
        <walk edges="30957915 51814854 -89726026#0 -89726026#1 89726026#2 -89726026#3" arrivalPos="26.72" />
    </person>
    <person id="gb179" depart="30036.36" departPos="random">
        <walk edges="152517443#2 -152517443#1" busStop="1008.TA.92-1-N-j24-1.88.H.17" /> 
        <ride busStop="1008.TA.92-1-N-j24-1.88.H.20" intended="667.TA.92-6-I-j24-1.3.H.0" depart="30530.00" /> 
        <walk edges="30957915 51814854 -89726026#0 -89726026#1 89726026#2 -89726026#3" arrivalPos="26.72" />
    </person>
    <person id="ga99" depart="30199.14" departPos="random">
        <walk edges="1428300394 -196520689#2 -196520689#1 196520689#0 -188730896#6 188730896#5 -188730896#4 188730896#3 188730896#2 188730896#1 188730896#0 69347933#1 69347933#0 1068735334 154770319#4 -154770319#3 154770319#2 154770319#1 154770319#0 25303487#5 25303487#6 -152517715#0 -152517715#1 152517715#3" busStop="1679.TA.92-1-N-j24-1.90.R.5" /> 
        <ride busStop="1136.TA.92-10-J-j24-1.22.R.22" intended="4666.TA.92-6-I-j24-1.34.R.0" depart="32690.00" /> 
        <walk edges="894576901#0 894576901#1 894576901#2 -25412020#0" arrivalPos="26.46" />
    </person>
    <person id="gb99" depart="30199.14" departPos="random">
        <walk edges="1428300394 -196520689#2 -196520689#1 196520689#0 -188730896#6 188730896#5 -188730896#4 188730896#3 188730896#2 188730896#1 188730896#0 69347933#1 69347933#0 1068735334 154770319#4 -154770319#3 154770319#2 154770319#1 154770319#0 25303487#5 25303487#6 -152517715#0 -152517715#1 152517715#3" busStop="1679.TA.92-1-N-j24-1.90.R.5" /> 
        <ride busStop="1136.TA.92-10-J-j24-1.22.R.22" intended="4666.TA.92-6-I-j24-1.34.R.0" depart="32690.00" /> 
        <walk edges="894576901#0 894576901#1 894576901#2 -25412020#0" arrivalPos="26.46" />
    </person>
    <person id="ga127" depart="30393.62" departPos="random">
        <walk edges="152517715#1 -152517715#0 25303487#6 25303487#5 -25303487#4" busStop="1008.TA.92-1-N-j24-1.88.H.19" /> 
        <ride busStop="1008.TA.92-1-N-j24-1.88.H.20" intended="667.TA.92-6-I-j24-1.3.H.0" depart="30650.00" /> 
        <walk edges="30957915 51814854 -89726026#0 -89726026#1 89726026#2 -89726026#3" arrivalPos="80.45" />
    </person>
    <person id="gb127" depart="30393.62" departPos="random">
        <walk edges="152517715#1 -152517715#0 25303487#6 25303487#5 -25303487#4" busStop="1008.TA.92-1-N-j24-1.88.H.19" /> 
        <ride busStop="1008.TA.92-1-N-j24-1.88.H.20" intended="667.TA.92-6-I-j24-1.3.H.0" depart="30650.00" /> 
        <walk edges="30957915 51814854 -89726026#0 -89726026#1 89726026#2 -89726026#3" arrivalPos="80.45" />
    </person>
    <person id="ga286" depart="30906.36" departPos="random">
        <walk edges="14014143#0 -1113136564#1 -1113136564#0 -89726026#3" busStop="114.TA.92-9-H-j24-1.10.H.3" /> 
        <ride busStop="114.TA.92-9-H-j24-1.10.H.4" intended="205.TA.92-9-H-j24-1.10.H.0" depart="31010.00" /> 
        <ride busStop="1008.TA.92-1-N-j24-1.88.H.25" intended="198.TA.96-260-1-j24-1.12.R.0" depart="31250.00" /> 
        <ride busStop="1008.TA.92-1-N-j24-1.88.H.26" intended="1153.TA.92-1-N-j24-1.89.H.0" depart="31610.00" /> 
        <ride busStop="459.TA.92-10-J-j24-1.71.H.34" intended="980.TA.92-2-L-j24-1.15.H.0" depart="31970.00" /> 
        <walk edges="894576903 -170952349#1 170952349#0 1068729371#2 -1068729371#1 1068729371#0 315159485#6 -315159485#5 -315159485#4 315159485#3 -315159485#2 -315159485#1 315159485#0 -977972909 -501346489#2" busStop="16.TA.96-290-0-j24-1.26.H.1" /> 
        <ride busStop="14.TA.96-290-0-j24-1.25.H.12" intended="21.TA.96-290-0-j24-1.10.H.0" depart="35270.00" /> 
        <walk edges="391661586 128157724#0 128157724#1 -1162541061#0 1162541061#1 -1162541061#2 -1162541061#3 -1162541061#4 222975197#2 -222975197#2" arrivalPos="0.16" />
    </person>
    <person id="gb286" depart="30906.36" departPos="random">
        <walk edges="14014143#0 -1113136564#1 -1113136564#0 -89726026#3" busStop="114.TA.92-9-H-j24-1.10.H.3" /> 
        <ride busStop="114.TA.92-9-H-j24-1.10.H.4" intended="205.TA.92-9-H-j24-1.10.H.0" depart="31010.00" /> 
        <ride busStop="1008.TA.92-1-N-j24-1.88.H.25" intended="198.TA.96-260-1-j24-1.12.R.0" depart="31250.00" /> 
        <ride busStop="1008.TA.92-1-N-j24-1.88.H.26" intended="1153.TA.92-1-N-j24-1.89.H.0" depart="31610.00" /> 
        <ride busStop="459.TA.92-10-J-j24-1.71.H.34" intended="980.TA.92-2-L-j24-1.15.H.0" depart="31970.00" /> 
        <walk edges="894576903 -170952349#1 170952349#0 1068729371#2 -1068729371#1 1068729371#0 315159485#6 -315159485#5 -315159485#4 315159485#3 -315159485#2 -315159485#1 315159485#0 -977972909 -501346489#2" busStop="16.TA.96-290-0-j24-1.26.H.1" /> 
        <ride busStop="14.TA.96-290-0-j24-1.25.H.12" intended="21.TA.96-290-0-j24-1.10.H.0" depart="35270.00" /> 
        <walk edges="391661586 128157724#0 128157724#1 -1162541061#0 1162541061#1 -1162541061#2 -1162541061#3 -1162541061#4 222975197#2 -222975197#2" arrivalPos="0.16" />
    </person>
    <person id="ga55" depart="30915.84" departPos="random">
        <walk edges="-56240189#2 -56240189#3 56240189#4 -56240189#5 56240189#7 -56240189#8 56240189#9 -973459742#0 -973459742#1 973459742#2 973459742#3 -888425580#0 150335026#0 150335026#1 -150335026#2 150335026#3 -150335026#4 -58413641 -58413640#0 -209755663#0 209755663#2 209755663#3" busStop="1136.TA.92-10-J-j24-1.22.R.5" /> 
        <ride busStop="2467.TA.92-1-N-j24-1.95.R.3" intended="2203.TA.92-2-L-j24-1.38.R.0" depart="31970.00" /> 
        <ride busStop="1679.TA.92-1-N-j24-1.90.R.1" intended="3050.TA.92-1-N-j24-1.101.R.0" depart="32570.00" /> 
        <ride busStop="1679.TA.92-1-N-j24-1.90.R.2" intended="712.TA.92-9-H-j24-1.10.H.0" depart="32990.00" /> 
        <ride busStop="1679.TA.92-1-N-j24-1.90.R.3" intended="3050.TA.92-1-N-j24-1.101.R.0" depart="33110.00" /> 
        <walk edges="-30957915 51814854 -89726026#0 -89726026#1 89726026#2 -89726026#3" arrivalPos="72.66" />
    </person>
    <person id="gb55" depart="30915.84" departPos="random">
        <walk edges="-56240189#2 -56240189#3 56240189#4 -56240189#5 56240189#7 -56240189#8 56240189#9 -973459742#0 -973459742#1 973459742#2 973459742#3 -888425580#0 150335026#0 150335026#1 -150335026#2 150335026#3 -150335026#4 -58413641 -58413640#0 -209755663#0 209755663#2 209755663#3" busStop="1136.TA.92-10-J-j24-1.22.R.5" /> 
        <ride busStop="2467.TA.92-1-N-j24-1.95.R.3" intended="2203.TA.92-2-L-j24-1.38.R.0" depart="31970.00" /> 
        <ride busStop="1679.TA.92-1-N-j24-1.90.R.1" intended="3050.TA.92-1-N-j24-1.101.R.0" depart="32570.00" /> 
        <ride busStop="1679.TA.92-1-N-j24-1.90.R.2" intended="712.TA.92-9-H-j24-1.10.H.0" depart="32990.00" /> 
        <ride busStop="1679.TA.92-1-N-j24-1.90.R.3" intended="3050.TA.92-1-N-j24-1.101.R.0" depart="33110.00" /> 
        <walk edges="-30957915 51814854 -89726026#0 -89726026#1 89726026#2 -89726026#3" arrivalPos="72.66" />
    </person>
    <person id="ga131" depart="30962.87" departPos="random">
        <walk edges="-188731354#1 -1428300393#0 1188934794 188730896#1 188730896#0 69347933#1 69347933#0 1068735334 154770319#4 -154770319#3 154770319#2 154770319#1 154770319#0 -25303487#4" busStop="1008.TA.92-1-N-j24-1.88.H.19" /> 
        <ride busStop="1008.TA.92-1-N-j24-1.88.H.20" intended="679.TA.92-6-I-j24-1.3.H.0" depart="32450.00" /> 
        <walk edges="30957915 51814854 -89726026#0 -89726026#1 89726026#2 89726026#3 -1113136564#0 -1113136564#1 14014143#0" arrivalPos="14.38" />
    </person>
    <person id="gb131" depart="30962.87" departPos="random">
        <walk edges="-188731354#1 -1428300393#0 1188934794 188730896#1 188730896#0 69347933#1 69347933#0 1068735334 154770319#4 -154770319#3 154770319#2 154770319#1 154770319#0 -25303487#4" busStop="1008.TA.92-1-N-j24-1.88.H.19" /> 
        <ride busStop="1008.TA.92-1-N-j24-1.88.H.20" intended="679.TA.92-6-I-j24-1.3.H.0" depart="32450.00" /> 
        <walk edges="30957915 51814854 -89726026#0 -89726026#1 89726026#2 89726026#3 -1113136564#0 -1113136564#1 14014143#0" arrivalPos="14.38" />
    </person>
    <person id="ga26" depart="31079.74" departPos="random">
        <walk edges="502426858 633986854#1" busStop="36.TA.96-290-0-j24-1.27.R.10" /> 
        <ride busStop="36.TA.96-290-0-j24-1.27.R.12" intended="48.TA.96-290-0-j24-1.17.R.0" depart="32030.00" /> 
        <walk edges="977972909 -315159485#0 -315159485#1 315159485#2 315159485#3 315159485#4 -315159485#5 -315159485#6 1068729371#0 -1068729371#1 -1068729371#2 170952349#0 -170952349#1 -977972910" busStop="1136.TA.92-10-J-j24-1.22.R.0" /> 
        <ride busStop="2467.TA.92-1-N-j24-1.95.R.3" intended="48.TA.96-290-0-j24-1.17.R.0" depart="33050.00" /> 
        <ride busStop="1679.TA.92-1-N-j24-1.90.R.0" intended="2467.TA.92-1-N-j24-1.95.R.0" depart="34370.00" /> 
        <walk edges="170952324#1 -170952324#1" busStop="1008.TA.92-1-N-j24-1.88.H.23" /> 
        <ride busStop="1679.TA.92-1-N-j24-1.90.R.2" intended="666.TA.92-9-H-j24-1.10.H.0" depart="34790.00" /> 
        <ride busStop="1679.TA.92-1-N-j24-1.90.R.3" intended="2467.TA.92-1-N-j24-1.95.R.0" depart="34910.00" /> 
        <walk edges="-30957915 51814854 -89726026#0 -89726026#1 89726026#2 89726026#3 -1113136564#0 -1113136564#1 14014143#0" arrivalPos="3.27" />
    </person>
    <person id="gb26" depart="31079.74" departPos="random">
        <walk edges="502426858 633986854#1" busStop="36.TA.96-290-0-j24-1.27.R.10" /> 
        <ride busStop="36.TA.96-290-0-j24-1.27.R.12" intended="48.TA.96-290-0-j24-1.17.R.0" depart="32030.00" /> 
        <walk edges="977972909 -315159485#0 -315159485#1 315159485#2 315159485#3 315159485#4 -315159485#5 -315159485#6 1068729371#0 -1068729371#1 -1068729371#2 170952349#0 -170952349#1 -977972910" busStop="1136.TA.92-10-J-j24-1.22.R.0" /> 
        <ride busStop="2467.TA.92-1-N-j24-1.95.R.3" intended="48.TA.96-290-0-j24-1.17.R.0" depart="33050.00" /> 
        <ride busStop="1679.TA.92-1-N-j24-1.90.R.0" intended="2467.TA.92-1-N-j24-1.95.R.0" depart="34370.00" /> 
        <walk edges="170952324#1 -170952324#1" busStop="1008.TA.92-1-N-j24-1.88.H.23" /> 
        <ride busStop="1679.TA.92-1-N-j24-1.90.R.2" intended="666.TA.92-9-H-j24-1.10.H.0" depart="34790.00" /> 
        <ride busStop="1679.TA.92-1-N-j24-1.90.R.3" intended="2467.TA.92-1-N-j24-1.95.R.0" depart="34910.00" /> 
        <walk edges="-30957915 51814854 -89726026#0 -89726026#1 89726026#2 89726026#3 -1113136564#0 -1113136564#1 14014143#0" arrivalPos="3.27" />
    </person>
    <person id="ga22" depart="31113.27" departPos="random">
        <walk edges="1426892794#1 1426892794#0 -391649038#1 -391649038#2 1426892796 1426892784 1426892782 472298258 1104477696 -171771381#0 171771381#1 -171771381#2 23844223 -23844224 -120840218#0 120840218#1 -120840218#2 -120840218#3 -120840218#4 391657349 502426851#0 -391657350#0 391657350#1 -502426852#0 -502426852#1 502426852#2 -502426852#3 -1083276369#0 -1083276369#1 1083276369#2 1083276369#3" busStop="36.TA.96-290-0-j24-1.27.R.4" /> 
        <ride busStop="36.TA.96-290-0-j24-1.27.R.5" intended="55.TA.96-290-0-j24-1.29.R.0" depart="34550.00" /> 
        <walk edges="502426855#1 -502426855#2 -1083276373 -1169006585 31060929#0 -31060929#1 -31060929#2 1101989249" arrivalPos="23.06" />
    </person>
    <person id="gb22" depart="31113.27" departPos="random">
        <walk edges="1426892794#1 1426892794#0 -391649038#1 -391649038#2 1426892796 1426892784 1426892782 472298258 1104477696 -171771381#0 171771381#1 -171771381#2 23844223 -23844224 -120840218#0 120840218#1 -120840218#2 -120840218#3 -120840218#4 391657349 502426851#0 -391657350#0 391657350#1 -502426852#0 -502426852#1 502426852#2 -502426852#3 -1083276369#0 -1083276369#1 1083276369#2 1083276369#3" busStop="36.TA.96-290-0-j24-1.27.R.4" /> 
        <ride busStop="36.TA.96-290-0-j24-1.27.R.5" intended="55.TA.96-290-0-j24-1.29.R.0" depart="34550.00" /> 
        <walk edges="502426855#1 -502426855#2 -1083276373 -1169006585 31060929#0 -31060929#1 -31060929#2 1101989249" arrivalPos="23.06" />
    </person>
    <person id="ga268" depart="31121.70" departPos="random">
        <walk edges="-25412020#0 25412020#0 25412019 152337236#1 -41595601#5 41595601#4 41595601#3 -41595601#2 41595601#0 819945210#0 -1467922383 819945211 -819942944#4" busStop="1679.TA.92-1-N-j24-1.90.R.6" /> 
        <ride busStop="1008.TA.92-1-N-j24-1.88.H.14" intended="2470.TA.92-1-N-j24-1.95.R.0" depart="31730.00" /> 
        <walk edges="519913263#1 519913263#0 897592613 904728442 531892740#0 531892740#1" arrivalPos="14.81" />
    </person>
    <person id="gb268" depart="31121.70" departPos="random">
        <walk edges="-25412020#0 25412020#0 25412019 152337236#1 -41595601#5 41595601#4 41595601#3 -41595601#2 41595601#0 819945210#0 -1467922383 819945211 -819942944#4" busStop="1679.TA.92-1-N-j24-1.90.R.6" /> 
        <ride busStop="1008.TA.92-1-N-j24-1.88.H.14" intended="2470.TA.92-1-N-j24-1.95.R.0" depart="31730.00" /> 
        <walk edges="519913263#1 519913263#0 897592613 904728442 531892740#0 531892740#1" arrivalPos="14.81" />
    </person>
    <person id="ga3" depart="31307.60" departPos="random">
        <walk edges="-391657351 502426854 1083276370 -502426853 -391657356 1083276369#2 1083276369#1 1083276369#0 -502426852#3 502426852#2 502426852#1 -502426852#0 -391657350#1 -391657350#0 -502426851#0" busStop="16.TA.96-290-0-j24-1.26.H.14" /> 
        <ride busStop="14.TA.96-290-0-j24-1.25.H.11" intended="29.TA.96-290-0-j24-1.10.H.0" depart="33230.00" /> 
        <walk edges="120829159 1083356001 120839519#1" arrivalPos="22.31" />
    </person>
    <person id="gb3" depart="31307.60" departPos="random">
        <walk edges="-391657351 502426854 1083276370 -502426853 -391657356 1083276369#2 1083276369#1 1083276369#0 -502426852#3 502426852#2 502426852#1 -502426852#0 -391657350#1 -391657350#0 -502426851#0" busStop="16.TA.96-290-0-j24-1.26.H.14" /> 
        <ride busStop="14.TA.96-290-0-j24-1.25.H.11" intended="29.TA.96-290-0-j24-1.10.H.0" depart="33230.00" /> 
        <walk edges="120829159 1083356001 120839519#1" arrivalPos="22.31" />
    </person>
    <person id="ga215" depart="31377.22" departPos="random">
        <walk edges="-239035118#5 56195874#6 -56195874#7 -150277078#3 -150277078#2 150277078#1 256959702#3 -256959702#2 -256959702#1 -256959702#0 -1068735318#2 -1068735318#1 1068735318#0 96461185 -209755663#4 209755663#3 209755663#2 -209755663#0 1317098557 -58413641 -150335026#4 150335026#3 -150335026#2 150335026#1 150335026#0 -888425580#0 973459742#3 973459742#2 -973459742#1 -973459742#0 56240189#9 -56240189#8 -56240189#7" busStop="459.TA.92-10-J-j24-1.71.H.30" /> 
        <ride busStop="459.TA.92-10-J-j24-1.71.H.32" intended="980.TA.92-2-L-j24-1.15.H.0" depart="32630.00" /> 
        <walk edges="208825826 -208825827#0 -208825827#2" arrivalPos="2.33" />
    </person>
    <person id="gb215" depart="31377.22" departPos="random">
        <walk edges="-239035118#5 56195874#6 -56195874#7 -150277078#3 -150277078#2 150277078#1 256959702#3 -256959702#2 -256959702#1 -256959702#0 -1068735318#2 -1068735318#1 1068735318#0 96461185 -209755663#4 209755663#3 209755663#2 -209755663#0 1317098557 -58413641 -150335026#4 150335026#3 -150335026#2 150335026#1 150335026#0 -888425580#0 973459742#3 973459742#2 -973459742#1 -973459742#0 56240189#9 -56240189#8 -56240189#7" busStop="459.TA.92-10-J-j24-1.71.H.30" /> 
        <ride busStop="459.TA.92-10-J-j24-1.71.H.32" intended="980.TA.92-2-L-j24-1.15.H.0" depart="32630.00" /> 
        <walk edges="208825826 -208825827#0 -208825827#2" arrivalPos="2.33" />
    </person>
    <person id="ga140" depart="31504.36" departPos="random">
        <walk edges="-578147406 -268146940#1 -268146940#0 -268146944#1 268146944#0 25412020#0 25412019" busStop="262.TA.92-10-J-j24-1.4.H.10" /> 
        <ride busStop="1008.TA.92-1-N-j24-1.88.H.20" intended="2215.TA.92-6-I-j24-1.16.H.0" depart="31730.00" /> 
        <walk edges="30957915 51814854 -89726026#0 -89726026#1 89726026#2 89726026#3 -1113136564#0 -1113136564#1 14014143#0 14014143#1" arrivalPos="46.39" />
    </person>
    <person id="gb140" depart="31504.36" departPos="random">
        <walk edges="-578147406 -268146940#1 -268146940#0 -268146944#1 268146944#0 25412020#0 25412019" busStop="262.TA.92-10-J-j24-1.4.H.10" /> 
        <ride busStop="1008.TA.92-1-N-j24-1.88.H.20" intended="2215.TA.92-6-I-j24-1.16.H.0" depart="31730.00" /> 
        <walk edges="30957915 51814854 -89726026#0 -89726026#1 89726026#2 89726026#3 -1113136564#0 -1113136564#1 14014143#0 14014143#1" arrivalPos="46.39" />
    </person>
    <person id="ga154" depart="31668.27" departPos="random">
        <walk edges="25303487#4 -25303487#4" busStop="1008.TA.92-1-N-j24-1.88.H.19" /> 
        <ride busStop="1008.TA.92-1-N-j24-1.88.H.20" intended="2215.TA.92-6-I-j24-1.16.H.0" depart="31850.00" /> 
        <walk edges="30957915 51814854 -89726026#0 -89726026#1 89726026#2 89726026#3 -1113136564#0 -1113136564#1 14014143#0" arrivalPos="34.43" />
    </person>
    <person id="gb154" depart="31668.27" departPos="random">
        <walk edges="25303487#4 -25303487#4" busStop="1008.TA.92-1-N-j24-1.88.H.19" /> 
        <ride busStop="1008.TA.92-1-N-j24-1.88.H.20" intended="2215.TA.92-6-I-j24-1.16.H.0" depart="31850.00" /> 
        <walk edges="30957915 51814854 -89726026#0 -89726026#1 89726026#2 89726026#3 -1113136564#0 -1113136564#1 14014143#0" arrivalPos="34.43" />
    </person>
    <person id="ga163" depart="31837.56" departPos="random">
        <walk edges="30957906 -1493002173 -30952515#1 -30952515#0" busStop="2386.TA.92-1-N-j24-1.93.R.1" /> 
        <ride busStop="1679.TA.92-1-N-j24-1.90.R.3" intended="4666.TA.92-6-I-j24-1.34.R.0" depart="32090.00" /> 
        <walk edges="-30957915 51814854 -89726026#0 -89726026#1 89726026#2 89726026#3 -1113136564#0 -1113136564#1 14014143#0" arrivalPos="44.80" />
    </person>
    <person id="gb163" depart="31837.56" departPos="random">
        <walk edges="30957906 -1493002173 -30952515#1 -30952515#0" busStop="2386.TA.92-1-N-j24-1.93.R.1" /> 
        <ride busStop="1679.TA.92-1-N-j24-1.90.R.3" intended="4666.TA.92-6-I-j24-1.34.R.0" depart="32090.00" /> 
        <walk edges="-30957915 51814854 -89726026#0 -89726026#1 89726026#2 89726026#3 -1113136564#0 -1113136564#1 14014143#0" arrivalPos="44.80" />
    </person>
    <person id="ga187" depart="31898.74" departPos="random">
        <walk edges="120839519#1 614559903 171771430 550605634#1 550605634#0 -1083351547 -522703193 1083351548 -171771384#1 -171771384#0 -171771450#0 31060954#0 -120840218#0 120840218#1 -120840218#2 -120840218#3 -120840218#4 391657349 502426851#0" busStop="48.TA.96-290-0-j24-1.17.R.4" /> 
        <ride busStop="48.TA.96-290-0-j24-1.17.R.10" intended="55.TA.96-290-0-j24-1.29.R.0" depart="34490.00" /> 
        <walk edges="1083273108#2 123066460 1083299692 1083273109" arrivalPos="44.73" />
    </person>
    <person id="gb187" depart="31898.74" departPos="random">
        <walk edges="120839519#1 614559903 171771430 550605634#1 550605634#0 -1083351547 -522703193 1083351548 -171771384#1 -171771384#0 -171771450#0 31060954#0 -120840218#0 120840218#1 -120840218#2 -120840218#3 -120840218#4 391657349 502426851#0" busStop="48.TA.96-290-0-j24-1.17.R.4" /> 
        <ride busStop="48.TA.96-290-0-j24-1.17.R.10" intended="55.TA.96-290-0-j24-1.29.R.0" depart="34490.00" /> 
        <walk edges="1083273108#2 123066460 1083299692 1083273109" arrivalPos="44.73" />
    </person>
    <person id="ga290" depart="32163.96" departPos="random">
        <walk edges="14014143#1 14014143#0 -1113136564#1 -1113136564#0 89726026#3 89726026#2 -89726026#1 -89726026#0 51814854 30957915" busStop="1008.TA.92-1-N-j24-1.88.H.20" /> 
        <ride busStop="2386.TA.92-1-N-j24-1.93.R.0" intended="679.TA.92-6-I-j24-1.3.H.0" depart="32510.00" /> 
        <walk edges="1068735330#7 -1068735330#5 1068735330#4 -1068735330#2 -1068735330#1" busStop="459.TA.92-10-J-j24-1.71.H.21" /> 
        <ride busStop="459.TA.92-10-J-j24-1.71.H.34" intended="3.TA.96-290-0-j24-1.2.H.0" depart="33050.00" /> 
        <walk edges="894576903 -170952349#1 170952349#0 1068729371#2 -1068729371#1 1068729371#0 315159485#6 -315159485#5 -315159485#4 315159485#3 -315159485#2 -315159485#1 315159485#0 -977972909 -501346489#2" busStop="16.TA.96-290-0-j24-1.26.H.1" /> 
        <ride busStop="14.TA.96-290-0-j24-1.25.H.12" intended="21.TA.96-290-0-j24-1.10.H.0" depart="35270.00" /> 
        <walk edges="391661586 128157724#0 128157724#1 -1162541061#0 1162541061#1 -1162541061#2 -1162541061#3 -186947410#0" arrivalPos="39.25" />
    </person>
    <person id="gb290" depart="32163.96" departPos="random">
        <walk edges="14014143#1 14014143#0 -1113136564#1 -1113136564#0 89726026#3 89726026#2 -89726026#1 -89726026#0 51814854 30957915" busStop="1008.TA.92-1-N-j24-1.88.H.20" /> 
        <ride busStop="2386.TA.92-1-N-j24-1.93.R.0" intended="679.TA.92-6-I-j24-1.3.H.0" depart="32510.00" /> 
        <walk edges="1068735330#7 -1068735330#5 1068735330#4 -1068735330#2 -1068735330#1" busStop="459.TA.92-10-J-j24-1.71.H.21" /> 
        <ride busStop="459.TA.92-10-J-j24-1.71.H.34" intended="3.TA.96-290-0-j24-1.2.H.0" depart="33050.00" /> 
        <walk edges="894576903 -170952349#1 170952349#0 1068729371#2 -1068729371#1 1068729371#0 315159485#6 -315159485#5 -315159485#4 315159485#3 -315159485#2 -315159485#1 315159485#0 -977972909 -501346489#2" busStop="16.TA.96-290-0-j24-1.26.H.1" /> 
        <ride busStop="14.TA.96-290-0-j24-1.25.H.12" intended="21.TA.96-290-0-j24-1.10.H.0" depart="35270.00" /> 
        <walk edges="391661586 128157724#0 128157724#1 -1162541061#0 1162541061#1 -1162541061#2 -1162541061#3 -186947410#0" arrivalPos="39.25" />
    </person>
    <person id="ga71" depart="32165.36" departPos="random">
        <walk edges="-679130967#0 -25475987#1 25475987#0 30957917#0 -30957917#1 -96461188 -187633173#1 -187633173#0 187633169#4 187633169#3 -187633169#2 -187633169#1 -187633169#0 -1050853680 -25418588#1 19738790#1 19738790#0 -1050853679 -19738795 1086005531 1086005530 1136237769 1086005533" busStop="2467.TA.92-1-N-j24-1.95.R.3" /> 
        <ride busStop="1679.TA.92-1-N-j24-1.90.R.1" intended="2467.TA.92-1-N-j24-1.95.R.0" depart="34370.00" /> 
        <ride busStop="1679.TA.92-1-N-j24-1.90.R.2" intended="666.TA.92-9-H-j24-1.10.H.0" depart="34790.00" /> 
        <ride busStop="1679.TA.92-1-N-j24-1.90.R.3" intended="2467.TA.92-1-N-j24-1.95.R.0" depart="34910.00" /> 