<?xml version="1.0" encoding="UTF-8"?>

<!-- generated by Eclipse SUMO duarouter Version 1.12.0
<configuration xmlns:xsi="http://www.w3.org/2001/XMLSchema-instance" xsi:noNamespaceSchemaLocation="http://sumo.dlr.de/xsd/duarouterConfiguration.xsd">

    <input>
        <net-file value="D:\Dokumente\sumo\maloja\simple.net.xml"/>
        <additional-files value="D:\Dokumente\sumo\maloja\taz_maloja_simple.add.xml,D:\Dokumente\sumo\maloja\04_shopping\taz_shopping.add.xml,D:\Dokumente\sumo\maloja\03_bus\virtualstop.add.xml,D:\Dokumente\sumo\maloja\03_bus\02_August\vtypes.xml,D:\Dokumente\sumo\maloja\03_bus\02_August\gtfs_pt_stops.add.xml"/>
        <route-files value="D:\Dokumente\sumo\maloja\04_shopping\persontrips_maloja_shopping_modded_doubled_public_taxi.xml,D:\Dokumente\sumo\maloja\03_bus\02_August\gtfs_pt_vehicles.add.xml"/>
    </input>

    <output>
        <output-file value="D:\Dokumente\sumo\maloja\04_shopping\persontrips_maloja_shopping_resolved_summer_bus_taxi_w15.rou.xml"/>
        <alternatives-output value="D:\Dokumente\sumo\maloja\04_shopping\persontrips_maloja_shopping_resolved_summer_bus_taxi_w15.rou.alt.xml"/>
    </output>

    <processing>
        <persontrip.transfer.taxi-walk value="ptStops"/>
        <persontrip.transfer.walk-taxi value="ptStops"/>
        <persontrip.taxi.waiting-time value="900"/>
    </processing>

    <report>
        <verbose value="true"/>
    </report>

</configuration>
-->

<routes xmlns:xsi="http://www.w3.org/2001/XMLSchema-instance" xsi:noNamespaceSchemaLocation="http://sumo.dlr.de/xsd/routes_file.xsd">
    <person id="ga27" depart="28958.69" departPos="random">
        <ride from="171771428#3" to="1113136564#0" arrivalPos="4.93" lines="taxi"/>
        <walk edges="1113136564#0 -1113136564#1 14014143#0 14014143#1" arrivalPos="134.62"/>
    </person>
    <person id="gb27" depart="28958.69" departPos="random">
        <ride from="171771428#3" to="1113136564#0" arrivalPos="4.93" lines="taxi"/>
        <walk edges="1113136564#0 -1113136564#1 14014143#0 14014143#1" arrivalPos="107.65"/>
    </person>
    <person id="ga166" depart="29015.86" departPos="random">
        <ride from="-926207664" to="1113136564#0" arrivalPos="4.93" lines="taxi"/>
        <walk edges="1113136564#0 -1113136564#1 14014143#0" arrivalPos="2.47"/>
    </person>
    <person id="gb166" depart="29015.86" departPos="random">
        <ride from="-926207664" to="1113136564#0" arrivalPos="4.93" lines="taxi"/>
        <walk edges="1113136564#0 -1113136564#1 14014143#0" arrivalPos="26.71"/>
    </person>
    <person id="ga72" depart="29122.82" departPos="random">
        <ride from="-30957916#2" to="-89726026#3" arrivalPos="7.50" lines="taxi"/>
        <walk edges="-89726026#3" arrivalPos="63.70"/>
    </person>
    <person id="gb72" depart="29122.82" departPos="random">
        <ride from="-30957916#2" to="-89726026#3" arrivalPos="7.50" lines="taxi"/>
        <walk edges="-89726026#3" arrivalPos="4.71"/>
    </person>
    <person id="ga176" depart="29493.28" departPos="random">
        <ride from="37804543#2" to="1113136564#0" arrivalPos="4.93" lines="taxi"/>
        <walk edges="1113136564#0 -1113136564#1 14014143#0 14014143#1" arrivalPos="112.30"/>
    </person>
    <person id="gb176" depart="29493.28" departPos="random">
        <ride from="37804543#2" to="1113136564#0" arrivalPos="4.93" lines="taxi"/>
        <walk edges="1113136564#0 -1113136564#1 14014143#0 14014143#1" arrivalPos="37.39"/>
    </person>
    <person id="ga179" depart="30036.36" departPos="random">
        <ride from="152517443#2" to="-89726026#3" arrivalPos="7.50" lines="taxi"/>
        <walk edges="-89726026#3" arrivalPos="58.87"/>
    </person>
    <person id="gb179" depart="30036.36" departPos="random">
        <ride from="152517443#2" to="-89726026#3" arrivalPos="7.50" lines="taxi"/>
        <walk edges="-89726026#3" arrivalPos="80.45"/>
    </person>
    <person id="ga99" depart="30199.14" departPos="random">
        <ride from="1428300394" to="25412019" arrivalPos="14.90" lines="taxi"/>
        <walk edges="25412019 25412020#0 -25412020#0" arrivalPos="0.29"/>
    </person>
    <person id="gb99" depart="30199.14" departPos="random">
        <ride from="1428300394" to="25412019" arrivalPos="14.90" lines="taxi"/>
        <walk edges="25412019 -25412020#0" arrivalPos="32.66"/>
    </person>
    <person id="ga127" depart="30393.62" departPos="random">
        <ride from="152517715#1" to="-89726026#3" arrivalPos="7.50" lines="taxi"/>
        <walk edges="-89726026#3" arrivalPos="50.33"/>
    </person>
    <person id="gb127" depart="30393.62" departPos="random">
        <ride from="152517715#1" to="-89726026#3" arrivalPos="7.50" lines="taxi"/>
        <walk edges="-89726026#3" arrivalPos="48.81"/>
    </person>
    <person id="ga286" depart="30906.36" departPos="random">
        <ride from="14014143#0" to="391661586" arrivalPos="62.32" lines="taxi"/>
        <walk edges="391661586 128157724#0 128157724#1 -1162541061#0 1162541061#1 -1162541061#2 -1162541061#3 -1162541061#4 -222975197#2" arrivalPos="14.81"/>
    </person>
    <person id="gb286" depart="30906.36" departPos="random">
        <ride from="14014143#0" to="391661586" arrivalPos="62.32" lines="taxi"/>
        <walk edges="391661586 128157724#0 128157724#1 -1162541061#0 1162541061#1 -1162541061#2 -1162541061#3 -1162541061#4 -222975197#2" arrivalPos="6.92"/>
    </person>
    <person id="ga55" depart="30915.84" departPos="random">
        <ride from="-56240189#2" to="-89726026#3" arrivalPos="7.50" lines="taxi"/>
        <walk edges="-89726026#3" arrivalPos="6.51"/>
    </person>
    <person id="gb55" depart="30915.84" departPos="random">
        <ride from="-56240189#2" to="-89726026#3" arrivalPos="7.50" lines="taxi"/>
        <walk edges="-89726026#3" arrivalPos="94.54"/>
    </person>
    <person id="ga131" depart="30962.87" departPos="random">
        <ride from="-188731354#1" to="1113136564#0" arrivalPos="4.93" lines="taxi"/>
        <walk edges="1113136564#0 -1113136564#1 14014143#0" arrivalPos="17.50"/>
    </person>
    <person id="gb131" depart="30962.87" departPos="random">
        <ride from="-188731354#1" to="1113136564#0" arrivalPos="4.93" lines="taxi"/>
        <walk edges="1113136564#0 -1113136564#1 14014143#0" arrivalPos="37.15"/>
    </person>
    <person id="ga26" depart="31079.74" departPos="random">
        <ride from="502426858" to="1113136564#0" arrivalPos="4.93" lines="taxi"/>
        <walk edges="1113136564#0 -1113136564#1 14014143#0" arrivalPos="2.51"/>
    </person>
    <person id="gb26" depart="31079.74" departPos="random">
        <ride from="502426858" to="1113136564#0" arrivalPos="4.93" lines="taxi"/>
        <walk edges="1113136564#0 -1113136564#1 14014143#0" arrivalPos="27.88"/>
    </person>
    <person id="ga22" depart="31113.27" departPos="random">
        <ride from="1426892794#1" to="502426855#1" arrivalPos="23.27" lines="taxi"/>
        <walk edges="502426855#1 -502426855#2 -1083276373 -1169006585 31060929#0 -31060929#1 -31060929#2 1101989249" arrivalPos="8.09"/>
    </person>
    <person id="gb22" depart="31113.27" departPos="random">
        <ride from="1426892794#1" to="502426855#1" arrivalPos="23.27" lines="taxi"/>
        <walk edges="502426855#1 -502426855#2 -1083276373 -1169006585 31060929#0 -31060929#1 -31060929#2 1101989249" arrivalPos="16.69"/>
    </person>
    <person id="ga268" depart="31121.70" departPos="random">
        <ride from="-25412020#0" to="519913257#1" arrivalPos="15.00" lines="taxi"/>
        <walk edges="519913257#1 531892740#1" arrivalPos="43.20"/>
    </person>
    <person id="gb268" depart="31121.70" departPos="random">
        <ride from="-25412020#0" to="519913257#1" arrivalPos="15.00" lines="taxi"/>
        <walk edges="519913257#1 531892740#1" arrivalPos="37.92"/>
    </person>
    <person id="ga3" depart="31307.60" departPos="random">
        <ride from="-391657351" to="120829159" arrivalPos="10.00" lines="taxi"/>
        <walk edges="120829159 1083356001 120839519#1" arrivalPos="28.97"/>
    </person>
    <person id="gb3" depart="31307.60" departPos="random">
        <ride from="-391657351" to="120829159" arrivalPos="10.00" lines="taxi"/>
        <walk edges="120829159 1083356001 120839519#1" arrivalPos="12.94"/>
    </person>
    <person id="ga215" depart="31377.22" departPos="random">
        <ride from="-239035118#5" to="208825826" arrivalPos="41.20" lines="taxi"/>
        <walk edges="208825826 -208825827#0 -208825827#2" arrivalPos="27.41"/>
    </person>
    <person id="gb215" depart="31377.22" departPos="random">
        <ride from="-239035118#5" to="208825826" arrivalPos="41.20" lines="taxi"/>
        <walk edges="208825826 -208825827#0 -208825827#2" arrivalPos="11.92"/>
    </person>
    <person id="ga140" depart="31504.36" departPos="random">
        <ride from="-578147406" to="1113136564#0" arrivalPos="4.93" lines="taxi"/>
        <walk edges="1113136564#0 -1113136564#1 14014143#0 14014143#1" arrivalPos="4.90"/>
    </person>
    <person id="gb140" depart="31504.36" departPos="random">
        <ride from="-578147406" to="1113136564#0" arrivalPos="4.93" lines="taxi"/>
        <walk edges="1113136564#0 -1113136564#1 14014143#0 14014143#1" arrivalPos="45.59"/>
    </person>
    <person id="ga154" depart="31668.27" departPos="random">
        <ride from="25303487#4" to="1113136564#0" arrivalPos="4.93" lines="taxi"/>
        <walk edges="1113136564#0 -1113136564#1 14014143#0" arrivalPos="41.55"/>
    </person>
    <person id="gb154" depart="31668.27" departPos="random">
        <ride from="25303487#4" to="1113136564#0" arrivalPos="4.93" lines="taxi"/>
        <walk edges="1113136564#0 -1113136564#1 14014143#0" arrivalPos="8.65"/>
    </person>
    <person id="ga163" depart="31837.56" departPos="random">
        <ride from="30957906" to="1113136564#0" arrivalPos="4.93" lines="taxi"/>
        <walk edges="1113136564#0 -1113136564#1 14014143#0" arrivalPos="51.99"/>
    </person>
    <person id="gb163" depart="31837.56" departPos="random">
        <ride from="30957906" to="1113136564#0" arrivalPos="4.93" lines="taxi"/>
        <walk edges="1113136564#0 -1113136564#1 14014143#0" arrivalPos="1.62"/>
    </person>
    <person id="ga187" depart="31898.74" departPos="random">
        <ride from="120839519#1" to="1083273108#2" arrivalPos="7.50" lines="taxi"/>
        <walk edges="1083273108#2 123066460 1083299692 1083273109" arrivalPos="34.52"/>
    </person>
    <person id="gb187" depart="31898.74" departPos="random">
        <ride from="120839519#1" to="1083273108#2" arrivalPos="7.50" lines="taxi"/>
        <walk edges="1083273108#2 123066460 1083299692 1083273109" arrivalPos="16.69"/>
    </person>
    <person id="ga290" depart="32163.96" departPos="random">
        <ride from="14014143#1" to="391661586" arrivalPos="62.32" lines="taxi"/>
        <walk edges="391661586 128157724#0 128157724#1 -1162541061#0 1162541061#1 -1162541061#2 -1162541061#3 -186947410#0" arrivalPos="12.80"/>
    </person>
    <person id="gb290" depart="32163.96" departPos="random">
        <ride from="14014143#1" to="391661586" arrivalPos="62.32" lines="taxi"/>
        <walk edges="391661586 128157724#0 128157724#1 -1162541061#0 1162541061#1 -1162541061#2 -1162541061#3 -186947410#0" arrivalPos="12.41"/>
    </person>
    <person id="ga71" depart="32165.36" departPos="random">
        <ride from="-679130967#0" to="1113136564#0" arrivalPos="4.93" lines="taxi"/>
        <walk edges="1113136564#0 -1113136564#1 14014143#0 14014143#1" arrivalPos="62.15"/>
    </person>
    <person id="gb71" depart="32165.36" departPos="random">
        <ride from="-679130967#0" to="1113136564#0" arrivalPos="4.93" lines="taxi"/>
        <walk edges="1113136564#0 -1113136564#1 14014143#0 14014143#1" arrivalPos="145.73"/>
    </person>
    <person id="ga29" depart="32263.84" departPos="random">
        <ride from="171771388#3" to="1113136564#0" arrivalPos="4.93" lines="taxi"/>
        <walk edges="1113136564#0 -1113136564#1 14014143#0" arrivalPos="14.35"/>
    </person>
    <person id="gb29" depart="32263.84" departPos="random">
        <ride from="171771388#3" to="1113136564#0" arrivalPos="4.93" lines="taxi"/>
        <walk edges="1113136564#0 -1113136564#1 14014143#0" arrivalPos="12.13"/>
    </person>
    <person id="ga34" depart="32473.54" departPos="random">
        <ride from="208825827#5" to="-96461182#0" arrivalPos="7.50" lines="taxi"/>
        <walk edges="-96461182#0 1472605488#1 1472605488#0 -150277078#5 150277078#4 -56195874#7 56195874#6 -239035118#5" arrivalPos="2.79"/>
    </person>
    <person id="gb34" depart="32473.54" departPos="random">
        <ride from="208825827#5" to="-96461182#0" arrivalPos="7.50" lines="taxi"/>
        <walk edges="-96461182#0 1472605488#1 1472605488#0 -150277078#5 150277078#4 -56195874#7 56195874#6 -239035118#5" arrivalPos="9.51"/>
    </person>
    <person id="ga288" depart="32821.78" departPos="random">
        <ride from="14014143#1" to="-501346489#2" arrivalPos="22.96" lines="taxi"/>
        <walk edges="-501346489#2 -501346489#1 501346489#0" arrivalPos="3.87"/>
    </person>
    <person id="gb288" depart="32821.78" departPos="random">
        <ride from="14014143#1" to="-501346489#2" arrivalPos="22.96" lines="taxi"/>
        <walk edges="-501346489#2 -501346489#1 501346489#0" arrivalPos="13.02"/>
    </person>
    <person id="ga125" depart="32835.02" departPos="random">
        <ride from="-1068735332#1" to="1113136564#0" arrivalPos="4.93" lines="taxi"/>
        <walk edges="1113136564#0 -1113136564#1 14014143#0 14014143#1" arrivalPos="13.45"/>
    </person>
    <person id="gb125" depart="32835.02" departPos="random">
        <ride from="-1068735332#1" to="1113136564#0" arrivalPos="4.93" lines="taxi"/>
        <walk edges="1113136564#0 -1113136564#1 14014143#0 14014143#1" arrivalPos="100.95"/>
    </person>
    <person id="ga79" depart="32975.39" departPos="random">
        <ride from="30957933" to="1113136564#0" arrivalPos="4.93" lines="taxi"/>
        <walk edges="1113136564#0 -1113136564#1 14014143#0 14014143#1" arrivalPos="108.11"/>
    </person>
    <person id="gb79" depart="32975.39" departPos="random">
        <ride from="30957933" to="1113136564#0" arrivalPos="4.93" lines="taxi"/>
        <walk edges="1113136564#0 -1113136564#1 14014143#0 14014143#1" arrivalPos="90.08"/>
    </person>
    <person id="ga14" depart="33157.33" departPos="random">
        <ride from="-171771383" to="502426855#1" arrivalPos="23.27" lines="taxi"/>
        <walk edges="502426855#1 -502426855#2 -1083276373 -1169006585 31060929#0 -31060929#1 -31060929#2 1101989249" arrivalPos="18.22"/>
    </person>
    <person id="gb14" depart="33157.33" departPos="random">
        <ride from="-171771383" to="502426855#1" arrivalPos="23.27" lines="taxi"/>
        <walk edges="502426855#1 -502426855#2 -1083276373 -1169006585 31060929#0 -31060929#1 -31060929#2 1101989249" arrivalPos="24.63"/>
    </person>
    <person id="ga53" depart="33320.00" departPos="random">
        <ride from="-256959702#2" to="1113136564#0" arrivalPos="4.93" lines="taxi"/>
        <walk edges="1113136564#0 -1113136564#1 14014143#0" arrivalPos="52.17"/>
    </person>
    <person id="gb53" depart="33320.00" departPos="random">
        <ride from="-256959702#2" to="1113136564#0" arrivalPos="4.93" lines="taxi"/>
        <walk edges="1113136564#0 -1113136564#1 14014143#0" arrivalPos="16.73"/>
    </person>
    <person id="ga353" depart="33322.51" departPos="random">
        <ride from="-89726026#3" to="-30050433#2" arrivalPos="38.69" lines="taxi"/>
        <walk edges="-30050433#2 -30050433#1 -30050433#0" arrivalPos="6.65"/>
    </person>
    <person id="gb353" depart="33322.51" departPos="random">
        <ride from="-89726026#3" to="-30050433#2" arrivalPos="38.69" lines="taxi"/>
        <walk edges="-30050433#2 -30050433#1 -30050433#0" arrivalPos="7.84"/>
    </person>
    <person id="ga61" depart="33377.06" departPos="random">
        <ride from="30952490#1" to="18887954#0" arrivalPos="6.62" lines="taxi"/>
        <walk edges="18887954#0 -116715858" arrivalPos="6.10"/>
    </person>
    <person id="gb61" depart="33377.06" departPos="random">
        <ride from="30952490#1" to="18887954#0" arrivalPos="6.62" lines="taxi"/>
        <walk edges="18887954#0 -116715858" arrivalPos="34.59"/>
    </person>
    <person id="ga366" depart="33391.60" departPos="random">
        <ride from="-89726026#3" to="25303488#4" arrivalPos="38.05" lines="taxi"/>
        <walk edges="25303488#4 1068735334 69347933#0 -69347933#1 -188730896#0 -188730896#1 1188934794 1428300393#0 188731354#1" arrivalPos="21.26"/>
    </person>
    <person id="gb366" depart="33391.60" departPos="random">
        <ride from="-89726026#3" to="25303488#4" arrivalPos="38.05" lines="taxi"/>
        <walk edges="25303488#4 1068735334 69347933#0 -69347933#1 -188730896#0 -188730896#1 1188934794 1428300393#0 188731354#1" arrivalPos="74.41"/>
    </person>
    <person id="ga239" depart="33418.58" departPos="random">
        <ride from="-116715858" to="1050853710" arrivalPos="26.41" lines="taxi"/>
        <walk edges="1050853710 -1050853709#1" arrivalPos="0.49"/>
    </person>
    <person id="gb239" depart="33418.58" departPos="random">
        <ride from="-116715858" to="1050853710" arrivalPos="26.41" lines="taxi"/>
        <walk edges="1050853710 -1050853709#1" arrivalPos="0.09"/>
    </person>
    <person id="ga237" depart="33634.88" departPos="random">
        <ride from="-116715858" to="1068735330#1" arrivalPos="7.04" lines="taxi"/>
        <walk edges="1068735330#1 30952483#0 -30952483#1 30952490#0 -30952523#0 -30952523#1 30952523#2 30952523#3 -30952523#4 -30952523#5 30952523#6" arrivalPos="9.59"/>
    </person>
    <person id="gb237" depart="33634.88" departPos="random">
        <ride from="-116715858" to="1068735330#1" arrivalPos="7.04" lines="taxi"/>
        <walk edges="1068735330#1 30952483#0 -30952483#1 30952490#0 -30952523#0 -30952523#1 30952523#2 30952523#3 -30952523#4 -30952523#5 30952523#6" arrivalPos="18.81"/>
    </person>
    <person id="ga263" depart="33781.81" departPos="random">
        <ride from="-25412020#0" to="30952515#0" arrivalPos="5.29" lines="taxi"/>
        <walk edges="30952515#0 72562019#0 -72562019#1 72562019#2 72562019#3 72562019#4 1435131955#1 -1435131955#2 894841757" arrivalPos="10.46"/>
    </person>
    <person id="gb263" depart="33781.81" departPos="random">
        <ride from="-25412020#0" to="30952515#0" arrivalPos="5.29" lines="taxi"/>
        <walk edges="30952515#0 72562019#0 -72562019#1 72562019#2 72562019#3 72562019#4 1435131955#1 -1435131955#2 894841757" arrivalPos="0.75"/>
    </person>
    <person id="ga101" depart="33830.95" departPos="random">
        <ride from="916468198#1" to="25412019" arrivalPos="14.90" lines="taxi"/>
        <walk edges="25412019 -25412020#0" arrivalPos="8.69"/>
    </person>
    <person id="gb101" depart="33830.95" departPos="random">
        <ride from="916468198#1" to="25412019" arrivalPos="14.90" lines="taxi"/>
        <walk edges="25412019 -25412020#0" arrivalPos="48.15"/>
    </person>
    <person id="ga298" depart="33896.93" departPos="random">
        <ride from="14014143#0" to="25418590#1" arrivalPos="2.00" lines="taxi"/>
        <walk edges="25418590#1 25418590#2" arrivalPos="13.19"/>
    </person>
    <person id="gb298" depart="33896.93" departPos="random">
        <ride from="14014143#0" to="25418590#1" arrivalPos="2.00" lines="taxi"/>
        <walk edges="25418590#1 25418590#2" arrivalPos="14.24"/>
    </person>
    <person id="ga120" depart="34004.36" departPos="random">
        <ride from="-1068735342#1" to="-89726026#3" arrivalPos="7.50" lines="taxi"/>
        <walk edges="-89726026#3" arrivalPos="9.29"/>
    </person>
    <person id="gb120" depart="34004.36" departPos="random">
        <ride from="-1068735342#1" to="-89726026#3" arrivalPos="7.50" lines="taxi"/>
        <walk edges="-89726026#3" arrivalPos="61.23"/>
    </person>
    <person id="ga130" depart="34193.83" departPos="random">
        <ride from="916468196#1" to="-89726026#3" arrivalPos="7.50" lines="taxi"/>
        <walk edges="-89726026#3" arrivalPos="22.37"/>
    </person>
    <person id="gb130" depart="34193.83" departPos="random">
        <ride from="916468196#1" to="-89726026#3" arrivalPos="7.50" lines="taxi"/>
        <walk edges="-89726026#3" arrivalPos="19.51"/>
    </person>
    <person id="ga299" depart="34228.03" departPos="random">
        <ride from="14014143#0" to="30957916#1" arrivalPos="29.75" lines="taxi"/>
        <walk edges="30957916#1 -30957917#1" arrivalPos="0.53"/>
    </person>
    <person id="gb299" depart="34228.03" departPos="random">
        <ride from="14014143#0" to="30957916#1" arrivalPos="29.75" lines="taxi"/>
        <walk edges="30957916#1 -30957917#1" arrivalPos="0.90"/>
    </person>
    <person id="ga368" depart="34368.60" departPos="random">
        <ride from="14014143#1" to="-170952322#1" arrivalPos="26.09" lines="taxi"/>
        <walk edges="-170952322#1 382202904#0 -382202904#1 -382202904#2 914487471#0" arrivalPos="0.14"/>
    </person>
    <person id="gb368" depart="34368.60" departPos="random">
        <ride from="14014143#1" to="-170952322#1" arrivalPos="26.09" lines="taxi"/>
        <walk edges="-170952322#1 382202904#0 -382202904#1 -382202904#2 914487471#0" arrivalPos="0.07"/>
    </person>
    <person id="ga128" depart="34531.89" departPos="random">
        <ride from="25303488#4" to="1113136564#0" arrivalPos="4.93" lines="taxi"/>
        <walk edges="1113136564#0 -1113136564#1 14014143#0 14014143#1" arrivalPos="43.82"/>
    </person>
    <person id="gb128" depart="34531.89" departPos="random">
        <ride from="25303488#4" to="1113136564#0" arrivalPos="4.93" lines="taxi"/>
        <walk edges="1113136564#0 -1113136564#1 14014143#0 14014143#1" arrivalPos="32.09"/>
    </person>
    <person id="ga362" depart="34649.12" departPos="random">
        <ride from="14014143#1" to="25303488#4" arrivalPos="38.05" lines="taxi"/>
        <walk edges="25303488#4 -25303488#3" arrivalPos="220.43"/>
    </person>
    <person id="gb362" depart="34649.12" departPos="random">
        <ride from="14014143#1" to="25303488#4" arrivalPos="38.05" lines="taxi"/>
        <walk edges="25303488#4 -25303488#3" arrivalPos="137.46"/>
    </person>
    <person id="ga107" depart="34774.51" departPos="random">
        <ride from="-96461184#1" to="25412019" arrivalPos="14.90" lines="taxi"/>
        <walk edges="25412019 -25412020#0" arrivalPos="29.85"/>
    </person>
    <person id="gb107" depart="34774.51" departPos="random">
        <ride from="-96461184#1" to="25412019" arrivalPos="14.90" lines="taxi"/>
        <walk edges="25412019 -25412020#0" arrivalPos="18.91"/>
    </person>
    <person id="ga202" depart="35016.67" departPos="random">
        <ride from="1101989249" to="-502426851#0" arrivalPos="11.18" lines="taxi"/>
        <walk edges="-502426851#0 391657349 171771397" arrivalPos="91.22"/>
    </person>
    <person id="gb202" depart="35016.67" departPos="random">
        <ride from="1101989249" to="-502426851#0" arrivalPos="11.18" lines="taxi"/>
        <walk edges="-502426851#0 391657349 171771397" arrivalPos="146.84"/>
    </person>
    <person id="ga312" depart="35125.54" departPos="random">
        <ride from="14014143#0" to="519913265#1" arrivalPos="10.00" lines="taxi"/>
        <walk edges="519913265#1 519913265#0 -903531446 -120840712#0 -120840712#1" arrivalPos="44.34"/>
    </person>
    <person id="gb312" depart="35125.54" departPos="random">
        <ride from="14014143#0" to="519913265#1" arrivalPos="10.00" lines="taxi"/>
        <walk edges="519913265#1 519913265#0 -903531446 -120840712#0 -120840712#1" arrivalPos="31.62"/>
    </person>
    <person id="ga75" depart="35263.26" departPos="random">
        <ride from="30957932#4" to="-89726026#3" arrivalPos="7.50" lines="taxi"/>
        <walk edges="-89726026#3" arrivalPos="39.43"/>
    </person>
    <person id="gb75" depart="35263.26" departPos="random">
        <ride from="30957932#4" to="-89726026#3" arrivalPos="7.50" lines="taxi"/>
        <walk edges="-89726026#3" arrivalPos="105.47"/>
    </person>
    <person id="ga4" depart="35410.45" departPos="random">
        <ride from="391653986#1" to="120829159" arrivalPos="10.00" lines="taxi"/>
        <walk edges="120829159 1083356001 120839519#1" arrivalPos="0.78"/>
    </person>
    <person id="gb4" depart="35410.45" departPos="random">
        <ride from="391653986#1" to="120829159" arrivalPos="10.00" lines="taxi"/>
        <walk edges="120829159 1083356001 120839519#1" arrivalPos="9.88"/>
    </person>
    <person id="ga189" depart="35461.71" departPos="random">
        <ride from="-1162538599#5" to="62065386" arrivalPos="7.50" lines="taxi"/>
        <walk edges="62065386 208218094 890086173 -171771427" arrivalPos="6.26"/>
    </person>
    <person id="gb189" depart="35461.71" departPos="random">
        <ride from="-1162538599#5" to="62065386" arrivalPos="7.50" lines="taxi"/>
        <walk edges="62065386 120839520 -41157381 171771447#1 171771447#2 -171771447#3 890086160#0 890086160#1 -890086160#2 -171771427" arrivalPos="52.37"/>
    </person>
    <person id="ga222" depart="35534.21" departPos="random">
        <ride from="-239035118#5" to="56240189#4" arrivalPos="23.74" lines="taxi"/>
        <walk edges="56240189#4 -56240189#5" arrivalPos="54.12"/>
    </person>
    <person id="gb222" depart="35534.21" departPos="random">
        <ride from="-239035118#5" to="56240189#4" arrivalPos="23.74" lines="taxi"/>
        <walk edges="56240189#4 -56240189#5" arrivalPos="80.06"/>
    </person>
    <person id="ga367" depart="35663.91" departPos="random">
        <ride from="14014143#0" to="170952324#1" arrivalPos="7.50" lines="taxi"/>
        <walk edges="170952324#1 170952324#0 26167684#0 26167684#1 -26167684#2" arrivalPos="8.48"/>
    </person>
    <person id="gb367" depart="35663.91" departPos="random">
        <ride from="14014143#0" to="170952324#1" arrivalPos="7.50" lines="taxi"/>
        <walk edges="170952324#1 170952324#0 26167684#0 26167684#1 -26167684#2" arrivalPos="7.32"/>
    </person>
    <person id="ga335" depart="35742.87" departPos="random">
        <ride from="-89726026#3" to="740109140" arrivalPos="20.48" lines="taxi"/>
        <walk edges="740109140 -188730896#6 188730896#5 188730896#4" arrivalPos="25.47"/>
    </person>
    <person id="gb335" depart="35742.87" departPos="random">
        <ride from="-89726026#3" to="740109140" arrivalPos="20.48" lines="taxi"/>
        <walk edges="740109140 -188730896#6 188730896#5 188730896#4" arrivalPos="16.33"/>
    </person>
    <person id="ga333" depart="35824.59" departPos="random">
        <ride from="-89726026#3" to="1161282679#6" arrivalPos="13.55" lines="taxi"/>
        <walk edges="1161282679#6 -916559232#0 -916559232#1 -267559167#0 267559167#1 267559167#2 1161282678#0 1161282678#1 -1161282677" arrivalPos="28.23"/>
    </person>
    <person id="gb333" depart="35824.59" departPos="random">
        <ride from="-89726026#3" to="1161282679#6" arrivalPos="13.55" lines="taxi"/>
        <walk edges="1161282679#6 -916559232#0 -916559232#1 -267559167#0 267559167#1 267559167#2 1161282678#0 1161282678#1 -1161282677" arrivalPos="18.53"/>
    </person>
    <person id="ga364" depart="35926.87" departPos="random">
        <ride from="-89726026#3" to="268146940#6" arrivalPos="7.77" lines="taxi"/>
        <walk edges="268146940#6 268146940#5 -268146940#4 268146940#3 39830434#0 39830434#1 -39830434#2 -391952926#3 391952926#2 391952926#1 152336656#0 152336656#2 -152336655#0 -152336655#1" arrivalPos="78.67"/>
    </person>
    <person id="gb364" depart="35926.87" departPos="random">
        <ride from="-89726026#3" to="268146940#6" arrivalPos="7.77" lines="taxi"/>
        <walk edges="268146940#6 268146940#5 -268146940#4 268146940#3 39830434#0 39830434#1 -39830434#2 -391952926#3 391952926#2 391952926#1 152336656#0 152336656#2 -152336655#0 -152336655#1" arrivalPos="24.00"/>
    </person>
    <person id="ga363" depart="36075.69" departPos="random">
        <ride from="14014143#0" to="25303488#4" arrivalPos="38.05" lines="taxi"/>
        <walk edges="25303488#4 1068735334 69347933#0 -69347933#1 -188730896#0 -188730896#1 -1188934794" arrivalPos="23.58"/>
    </person>
    <person id="gb363" depart="36075.69" departPos="random">
        <ride from="14014143#0" to="25303488#4" arrivalPos="38.05" lines="taxi"/>
        <walk edges="25303488#4 1068735334 69347933#0 -69347933#1 -188730896#0 -188730896#1 -1188934794" arrivalPos="19.66"/>
    </person>
    <person id="ga326" depart="36200.45" departPos="random">
        <ride from="14014143#1" to="152517715#3" arrivalPos="7.50" lines="taxi"/>
        <walk edges="152517715#3 1005170350 1115020156" arrivalPos="147.08"/>
    </person>
    <person id="gb326" depart="36200.45" departPos="random">
        <ride from="14014143#1" to="152517715#3" arrivalPos="7.50" lines="taxi"/>
        <walk edges="152517715#3 1005170350 1115020156" arrivalPos="21.35"/>
    </person>
    <person id="ga302" depart="36214.22" departPos="random">
        <ride from="14014143#1" to="185833040#1" arrivalPos="15.53" lines="taxi"/>
        <walk edges="185833040#1 185833040#2 664380228#1 -1219863760#1 1219863759 -209788015 1136239035#1 1136239035#0 182095936#1 1068735328#0 -1068735328#1 -1068735328#2 182548595#0 -182548595#1 116605040#0 116605040#1" arrivalPos="64.33"/>
    </person>
    <person id="gb302" depart="36214.22" departPos="random">
        <ride from="14014143#1" to="185833040#1" arrivalPos="15.53" lines="taxi"/>
        <walk edges="185833040#1 185833040#2 664380228#1 -1219863760#1 1219863759 -209788015 1136239035#1 1136239035#0 182095936#1 1068735328#0 -1068735328#1 -1068735328#2 182548595#0 -182548595#1 116605040#0 116605040#1" arrivalPos="91.30"/>
    </person>
    <person id="ga328" depart="36270.06" departPos="random">