<?xml version="1.0" encoding="UTF-8"?>

<!-- generated by Eclipse SUMO duarouter Version 1.12.0
<configuration xmlns:xsi="http://www.w3.org/2001/XMLSchema-instance" xsi:noNamespaceSchemaLocation="http://sumo.dlr.de/xsd/duarouterConfiguration.xsd">

    <input>
        <net-file value="D:\Dokumente\sumo\maloja\simple.net.xml"/>
        <additional-files value="D:\Dokumente\sumo\maloja\taz_maloja_simple.add.xml,D:\Dokumente\sumo\maloja\04_shopping\taz_shopping.add.xml,D:\Dokumente\sumo\maloja\03_bus\virtualstop.add.xml,D:\Dokumente\sumo\maloja\03_bus\02_August\vtypes.xml,D:\Dokumente\sumo\maloja\03_bus\02_August\gtfs_pt_stops.add.xml"/>
        <route-files value="D:\Dokumente\sumo\maloja\04_shopping\persontrips_maloja_shopping_modded_doubled.xml,D:\Dokumente\sumo\maloja\03_bus\02_August\gtfs_pt_vehicles.add.xml"/>
    </input>

    <output>
        <output-file value="D:\Dokumente\sumo\maloja\04_shopping\persontrips_maloja_shopping_resolved_summer_bus.rou.xml"/>
        <alternatives-output value="D:\Dokumente\sumo\maloja\04_shopping\persontrips_maloja_shopping_resolved_summer_bus.rou.alt.xml"/>
    </output>

    <processing>
        <persontrip.transfer.taxi-walk value="ptStops"/>
        <persontrip.transfer.walk-taxi value="ptStops"/>
    </processing>

    <report>
        <verbose value="true"/>
    </report>

</configuration>
-->

<routes xmlns:xsi="http://www.w3.org/2001/XMLSchema-instance" xsi:noNamespaceSchemaLocation="http://sumo.dlr.de/xsd/routes_file.xsd">
    <person id="ga27" depart="28958.69" departPos="random">
        <walk edges="171771428#3 -171771428#3 171771398 -889967615 -171771447#5 171771447#4 -171771447#3 171771447#2 171771447#1 -41157381 120839520 62065386" busStop="1.TA.96-290-3-j24-1.1.H.0"/> <!-- Soglio, Villaggio -->
        <ride busStop="1.TA.96-290-3-j24-1.1.H.4" lines="1.TA.96-290-3-j24-1.1.H" intended="11.TA.96-290-3-j24-1.1.H.0" depart="29570.00"/> <!-- Promontogno, Posta -->
        <walk edges="120829159" busStop="14.TA.96-290-0-j24-1.25.H.11"/> <!-- Promontogno, Posta -->
        <ride busStop="36.TA.96-290-0-j24-1.27.R.12" lines="48.TA.96-290-0-j24-1.17.R" intended="48.TA.96-290-0-j24-1.17.R.0" depart="30830.00"/> <!-- Maloja, Cad'Maté -->
        <walk edges="977972909 -315159485#0 -315159485#1 315159485#2 315159485#3 315159485#4 -315159485#5 -315159485#6 1068729371#0 -1068729371#1 -1068729371#2 170952349#0 -170952349#1 -977972910" busStop="1193.TA.92-10-J-j24-1.22.R.0"/> <!-- Maloja, Posta -->
        <ride busStop="2545.TA.92-1-N-j24-1.95.R.3" lines="48.TA.96-290-0-j24-1.17.R" intended="48.TA.96-290-0-j24-1.17.R.0" depart="33050.00"/> <!-- Silvaplana, Rundella Curtins -->
        <ride busStop="1674.TA.92-1-N-j24-1.90.R.1" lines="2545.TA.92-1-N-j24-1.95.R" intended="2613.TA.92-1-N-j24-1.95.R.0" depart="34370.00"/> <!-- St. Moritz Bad, Hallenbad -->
        <ride busStop="1674.TA.92-1-N-j24-1.90.R.2" lines="1003.TA.92-9-H-j24-1.10.H" intended="1003.TA.92-9-H-j24-1.10.H.0" depart="34790.00"/> <!-- St. Moritz Bad, Sonne -->
        <ride busStop="1674.TA.92-1-N-j24-1.90.R.3" lines="2545.TA.92-1-N-j24-1.95.R" intended="2613.TA.92-1-N-j24-1.95.R.0" depart="34910.00"/> <!-- St. Moritz Bad, Kath. Kirche -->
        <walk edges="-30957915 51814854 -89726026#0 -89726026#1 89726026#2 89726026#3 -1113136564#0 -1113136564#1 14014143#0 14014143#1" arrivalPos="134.62"/>
    </person>
    <person id="gb27" depart="28958.69" departPos="random">
        <walk edges="171771428#3 -171771428#3 171771398 -889967615 -171771447#5 171771447#4 -171771447#3 171771447#2 171771447#1 -41157381 120839520 62065386" busStop="1.TA.96-290-3-j24-1.1.H.0"/> <!-- Soglio, Villaggio -->
        <ride busStop="1.TA.96-290-3-j24-1.1.H.4" lines="1.TA.96-290-3-j24-1.1.H" intended="11.TA.96-290-3-j24-1.1.H.0" depart="29570.00"/> <!-- Promontogno, Posta -->
        <walk edges="120829159" busStop="14.TA.96-290-0-j24-1.25.H.11"/> <!-- Promontogno, Posta -->
        <ride busStop="36.TA.96-290-0-j24-1.27.R.12" lines="48.TA.96-290-0-j24-1.17.R" intended="48.TA.96-290-0-j24-1.17.R.0" depart="30830.00"/> <!-- Maloja, Cad'Maté -->
        <walk edges="977972909 -315159485#0 -315159485#1 315159485#2 315159485#3 315159485#4 -315159485#5 -315159485#6 1068729371#0 -1068729371#1 -1068729371#2 170952349#0 -170952349#1 -977972910" busStop="1193.TA.92-10-J-j24-1.22.R.0"/> <!-- Maloja, Posta -->
        <ride busStop="2545.TA.92-1-N-j24-1.95.R.3" lines="48.TA.96-290-0-j24-1.17.R" intended="48.TA.96-290-0-j24-1.17.R.0" depart="33050.00"/> <!-- Silvaplana, Rundella Curtins -->
        <ride busStop="1674.TA.92-1-N-j24-1.90.R.1" lines="2545.TA.92-1-N-j24-1.95.R" intended="2613.TA.92-1-N-j24-1.95.R.0" depart="34370.00"/> <!-- St. Moritz Bad, Hallenbad -->
        <ride busStop="1674.TA.92-1-N-j24-1.90.R.2" lines="1003.TA.92-9-H-j24-1.10.H" intended="1003.TA.92-9-H-j24-1.10.H.0" depart="34790.00"/> <!-- St. Moritz Bad, Sonne -->
        <ride busStop="1674.TA.92-1-N-j24-1.90.R.3" lines="2545.TA.92-1-N-j24-1.95.R" intended="2613.TA.92-1-N-j24-1.95.R.0" depart="34910.00"/> <!-- St. Moritz Bad, Kath. Kirche -->
        <walk edges="-30957915 51814854 -89726026#0 -89726026#1 89726026#2 89726026#3 -1113136564#0 -1113136564#1 14014143#0 14014143#1" arrivalPos="107.65"/>
    </person>
    <person id="ga166" depart="29015.86" departPos="random">
        <walk edges="-926207664 -1068735336#2 -1068735336#1 1068735336#0 25303490 -152517443#2 -152517443#1" busStop="1323.TA.92-1-N-j24-1.88.H.17"/> <!-- St. Moritz, Caspar Badrutt -->
        <ride busStop="1323.TA.92-1-N-j24-1.88.H.20" lines="660.TA.92-1-N-j24-1.81.H" intended="736.TA.92-1-N-j24-1.81.H.0" depart="29330.00"/> <!-- St. Moritz Bad, Kath. Kirche -->
        <walk edges="30957915 51814854 -89726026#0 -89726026#1 89726026#2 89726026#3 -1113136564#0 -1113136564#1 14014143#0" arrivalPos="2.47"/>
    </person>
    <person id="gb166" depart="29015.86" departPos="random">
        <walk edges="-926207664 -1068735336#2 -1068735336#1 1068735336#0 25303490 -152517443#2 -152517443#1" busStop="1323.TA.92-1-N-j24-1.88.H.17"/> <!-- St. Moritz, Caspar Badrutt -->
        <ride busStop="1323.TA.92-1-N-j24-1.88.H.20" lines="660.TA.92-1-N-j24-1.81.H" intended="736.TA.92-1-N-j24-1.81.H.0" depart="29330.00"/> <!-- St. Moritz Bad, Kath. Kirche -->
        <walk edges="30957915 51814854 -89726026#0 -89726026#1 89726026#2 89726026#3 -1113136564#0 -1113136564#1 14014143#0" arrivalPos="26.71"/>
    </person>
    <person id="ga72" depart="29122.82" departPos="random">
        <walk edges="-30957916#2 30957916#1 -30957917#1 30957917#0 25418591#5" busStop="2545.TA.92-1-N-j24-1.95.R.1"/> <!-- Surlej, Foppas -->
        <ride busStop="2545.TA.92-1-N-j24-1.95.R.2" lines="2337.TA.92-6-I-j24-1.16.H" intended="2337.TA.92-6-I-j24-1.16.H.0" depart="29450.00"/> <!-- Surlej, Punt -->
        <walk edges="-25418588#1 19738790#1 19738790#0 -1050853679 -19738795 1086005531 1086005530 1136237769 1086005533" busStop="2545.TA.92-1-N-j24-1.95.R.3"/> <!-- Silvaplana, Rundella Curtins -->
        <ride busStop="2545.TA.92-1-N-j24-1.95.R.4" lines="61.TA.96-290-0-j24-1.30.R" intended="61.TA.96-290-0-j24-1.30.R.0" depart="30710.00"/> <!-- St. Moritz Bad, Campingplatz -->
        <ride busStop="1674.TA.92-1-N-j24-1.90.R.1" lines="2545.TA.92-1-N-j24-1.95.R" intended="2581.TA.92-1-N-j24-1.95.R.0" depart="30950.00"/> <!-- St. Moritz Bad, Hallenbad -->
        <ride busStop="1674.TA.92-1-N-j24-1.90.R.2" lines="1003.TA.92-9-H-j24-1.10.H" intended="646.TA.92-9-H-j24-1.10.H.0" depart="31190.00"/> <!-- St. Moritz Bad, Sonne -->
        <ride busStop="1674.TA.92-1-N-j24-1.90.R.3" lines="2545.TA.92-1-N-j24-1.95.R" intended="2581.TA.92-1-N-j24-1.95.R.0" depart="31310.00"/> <!-- St. Moritz Bad, Kath. Kirche -->
        <walk edges="-30957915 51814854 -89726026#0 -89726026#1 89726026#2 -89726026#3" arrivalPos="63.70"/>
    </person>
    <person id="gb72" depart="29122.82" departPos="random">
        <walk edges="-30957916#2 30957916#1 -30957917#1 30957917#0 25418591#5" busStop="2545.TA.92-1-N-j24-1.95.R.1"/> <!-- Surlej, Foppas -->
        <ride busStop="2545.TA.92-1-N-j24-1.95.R.2" lines="2337.TA.92-6-I-j24-1.16.H" intended="2337.TA.92-6-I-j24-1.16.H.0" depart="29450.00"/> <!-- Surlej, Punt -->
        <walk edges="-25418588#1 19738790#1 19738790#0 -1050853679 -19738795 1086005531 1086005530 1136237769 1086005533" busStop="2545.TA.92-1-N-j24-1.95.R.3"/> <!-- Silvaplana, Rundella Curtins -->
        <ride busStop="2545.TA.92-1-N-j24-1.95.R.4" lines="61.TA.96-290-0-j24-1.30.R" intended="61.TA.96-290-0-j24-1.30.R.0" depart="30710.00"/> <!-- St. Moritz Bad, Campingplatz -->
        <ride busStop="1674.TA.92-1-N-j24-1.90.R.1" lines="2545.TA.92-1-N-j24-1.95.R" intended="2581.TA.92-1-N-j24-1.95.R.0" depart="30950.00"/> <!-- St. Moritz Bad, Hallenbad -->
        <ride busStop="1674.TA.92-1-N-j24-1.90.R.2" lines="1003.TA.92-9-H-j24-1.10.H" intended="646.TA.92-9-H-j24-1.10.H.0" depart="31190.00"/> <!-- St. Moritz Bad, Sonne -->
        <ride busStop="1674.TA.92-1-N-j24-1.90.R.3" lines="2545.TA.92-1-N-j24-1.95.R" intended="2581.TA.92-1-N-j24-1.95.R.0" depart="31310.00"/> <!-- St. Moritz Bad, Kath. Kirche -->
        <walk edges="-30957915 51814854 -89726026#0 -89726026#1 89726026#2 -89726026#3" arrivalPos="4.71"/>
    </person>
    <person id="ga176" depart="29493.28" departPos="random">
        <walk edges="37804543#2 -37804543#1 37804543#0 -120840712#3 1068735342#0 1068735342#1 -819942945#0 819942945#2 1068735337 -152520535 819942944#2 819942944#3 -819942944#4 819945211 -1467922383 819945209 -152517443#2 -152517443#1" busStop="1323.TA.92-1-N-j24-1.88.H.17"/> <!-- St. Moritz, Caspar Badrutt -->
        <ride busStop="1323.TA.92-1-N-j24-1.88.H.20" lines="333.TA.92-6-I-j24-1.3.H" intended="401.TA.92-6-I-j24-1.3.H.0" depart="30530.00"/> <!-- St. Moritz Bad, Kath. Kirche -->
        <walk edges="30957915 51814854 -89726026#0 -89726026#1 89726026#2 89726026#3 -1113136564#0 -1113136564#1 14014143#0 14014143#1" arrivalPos="112.30"/>
    </person>
    <person id="gb176" depart="29493.28" departPos="random">
        <walk edges="37804543#2 -37804543#1 37804543#0 -120840712#3 1068735342#0 1068735342#1 -819942945#0 819942945#2 1068735337 -152520535 819942944#2 819942944#3 -819942944#4 819945211 -1467922383 819945209 -152517443#2 -152517443#1" busStop="1323.TA.92-1-N-j24-1.88.H.17"/> <!-- St. Moritz, Caspar Badrutt -->
        <ride busStop="1323.TA.92-1-N-j24-1.88.H.20" lines="333.TA.92-6-I-j24-1.3.H" intended="401.TA.92-6-I-j24-1.3.H.0" depart="30530.00"/> <!-- St. Moritz Bad, Kath. Kirche -->
        <walk edges="30957915 51814854 -89726026#0 -89726026#1 89726026#2 89726026#3 -1113136564#0 -1113136564#1 14014143#0 14014143#1" arrivalPos="37.39"/>
    </person>
    <person id="ga179" depart="30036.36" departPos="random">
        <walk edges="152517443#2 -152517443#1" busStop="1323.TA.92-1-N-j24-1.88.H.17"/> <!-- St. Moritz, Caspar Badrutt -->
        <ride busStop="1323.TA.92-1-N-j24-1.88.H.20" lines="333.TA.92-6-I-j24-1.3.H" intended="401.TA.92-6-I-j24-1.3.H.0" depart="30530.00"/> <!-- St. Moritz Bad, Kath. Kirche -->
        <walk edges="30957915 51814854 -89726026#0 -89726026#1 89726026#2 -89726026#3" arrivalPos="58.87"/>
    </person>
    <person id="gb179" depart="30036.36" departPos="random">
        <walk edges="152517443#2 -152517443#1" busStop="1323.TA.92-1-N-j24-1.88.H.17"/> <!-- St. Moritz, Caspar Badrutt -->
        <ride busStop="1323.TA.92-1-N-j24-1.88.H.20" lines="333.TA.92-6-I-j24-1.3.H" intended="401.TA.92-6-I-j24-1.3.H.0" depart="30530.00"/> <!-- St. Moritz Bad, Kath. Kirche -->
        <walk edges="30957915 51814854 -89726026#0 -89726026#1 89726026#2 -89726026#3" arrivalPos="80.45"/>
    </person>
    <person id="ga99" depart="30199.14" departPos="random">
        <walk edges="1428300394 -196520689#2 -196520689#1 196520689#0 -188730896#6 188730896#5 -188730896#4 188730896#3 188730896#2 188730896#1 188730896#0 69347933#1 69347933#0 1068735334 154770319#4 -154770319#3 154770319#2 154770319#1 154770319#0 25303487#5 25303487#6 -152517715#0 -152517715#1 152517715#3" busStop="1674.TA.92-1-N-j24-1.90.R.5"/> <!-- St. Moritz Bad, Via Aruons -->
        <ride busStop="1193.TA.92-10-J-j24-1.22.R.22" lines="4700.TA.92-6-I-j24-1.34.R" intended="4755.TA.92-6-I-j24-1.34.R.0" depart="32690.00"/> <!-- St. Moritz, Schulhausplatz -->
        <walk edges="894576901#0 894576901#1 894576901#2 25412020#0 -25412020#0" arrivalPos="0.29"/>
    </person>
    <person id="gb99" depart="30199.14" departPos="random">
        <walk edges="1428300394 -196520689#2 -196520689#1 196520689#0 -188730896#6 188730896#5 -188730896#4 188730896#3 188730896#2 188730896#1 188730896#0 69347933#1 69347933#0 1068735334 154770319#4 -154770319#3 154770319#2 154770319#1 154770319#0 25303487#5 25303487#6 -152517715#0 -152517715#1 152517715#3" busStop="1674.TA.92-1-N-j24-1.90.R.5"/> <!-- St. Moritz Bad, Via Aruons -->
        <ride busStop="1193.TA.92-10-J-j24-1.22.R.22" lines="4700.TA.92-6-I-j24-1.34.R" intended="4755.TA.92-6-I-j24-1.34.R.0" depart="32690.00"/> <!-- St. Moritz, Schulhausplatz -->
        <walk edges="894576901#0 894576901#1 894576901#2 -25412020#0" arrivalPos="32.66"/>
    </person>
    <person id="ga127" depart="30393.62" departPos="random">
        <walk edges="152517715#1 -152517715#0 25303487#6 25303487#5 -25303487#4" busStop="1323.TA.92-1-N-j24-1.88.H.19"/> <!-- St. Moritz Bad, Via Salet -->
        <ride busStop="1323.TA.92-1-N-j24-1.88.H.20" lines="333.TA.92-6-I-j24-1.3.H" intended="401.TA.92-6-I-j24-1.3.H.0" depart="30650.00"/> <!-- St. Moritz Bad, Kath. Kirche -->
        <walk edges="30957915 51814854 -89726026#0 -89726026#1 89726026#2 -89726026#3" arrivalPos="50.33"/>
    </person>
    <person id="gb127" depart="30393.62" departPos="random">
        <walk edges="152517715#1 -152517715#0 25303487#6 25303487#5 -25303487#4" busStop="1323.TA.92-1-N-j24-1.88.H.19"/> <!-- St. Moritz Bad, Via Salet -->
        <ride busStop="1323.TA.92-1-N-j24-1.88.H.20" lines="333.TA.92-6-I-j24-1.3.H" intended="401.TA.92-6-I-j24-1.3.H.0" depart="30650.00"/> <!-- St. Moritz Bad, Kath. Kirche -->
        <walk edges="30957915 51814854 -89726026#0 -89726026#1 89726026#2 -89726026#3" arrivalPos="48.81"/>
    </person>
    <person id="ga286" depart="30906.36" departPos="random">
        <walk edges="14014143#0 -1113136564#1 -1113136564#0 -89726026#3" busStop="1003.TA.92-9-H-j24-1.10.H.3"/> <!-- St. Moritz Bad, Reithalle -->
        <ride busStop="1003.TA.92-9-H-j24-1.10.H.4" lines="1003.TA.92-9-H-j24-1.10.H" intended="646.TA.92-9-H-j24-1.10.H.0" depart="31010.00"/> <!-- St. Moritz Bad, Post -->
        <ride busStop="1323.TA.92-1-N-j24-1.88.H.25" lines="196.TA.96-260-1-j24-1.12.R" intended="196.TA.96-260-1-j24-1.12.R.0" depart="31250.00"/> <!-- St. Moritz Bad, Campingplatz -->
        <ride busStop="1323.TA.92-1-N-j24-1.88.H.26" lines="1406.TA.92-1-N-j24-1.89.H" intended="1571.TA.92-1-N-j24-1.89.H.0" depart="31610.00"/> <!-- Silvaplana, Rundella Curtins -->
        <ride busStop="506.TA.92-10-J-j24-1.71.H.34" lines="1004.TA.92-2-L-j24-1.15.H" intended="915.TA.92-2-L-j24-1.15.H.0" depart="31970.00"/> <!-- Maloja, Posta -->
        <walk edges="894576903 -170952349#1 170952349#0 1068729371#2 -1068729371#1 1068729371#0 315159485#6 -315159485#5 -315159485#4 315159485#3 -315159485#2 -315159485#1 315159485#0 -977972909 -501346489#2" busStop="16.TA.96-290-0-j24-1.26.H.1"/> <!-- Maloja, Cad'Maté -->
        <ride busStop="14.TA.96-290-0-j24-1.25.H.12" lines="20.TA.96-290-0-j24-1.10.H" intended="22.TA.96-290-0-j24-1.10.H.0" depart="35270.00"/> <!-- Castasegna, Dogana nuova -->
        <walk edges="391661586 128157724#0 128157724#1 -1162541061#0 1162541061#1 -1162541061#2 -1162541061#3 -1162541061#4 -222975197#2" arrivalPos="14.81"/>
    </person>
    <person id="gb286" depart="30906.36" departPos="random">
        <walk edges="14014143#0 -1113136564#1 -1113136564#0 -89726026#3" busStop="1003.TA.92-9-H-j24-1.10.H.3"/> <!-- St. Moritz Bad, Reithalle -->
        <ride busStop="1003.TA.92-9-H-j24-1.10.H.4" lines="1003.TA.92-9-H-j24-1.10.H" intended="646.TA.92-9-H-j24-1.10.H.0" depart="31010.00"/> <!-- St. Moritz Bad, Post -->
        <ride busStop="1323.TA.92-1-N-j24-1.88.H.25" lines="196.TA.96-260-1-j24-1.12.R" intended="196.TA.96-260-1-j24-1.12.R.0" depart="31250.00"/> <!-- St. Moritz Bad, Campingplatz -->
        <ride busStop="1323.TA.92-1-N-j24-1.88.H.26" lines="1406.TA.92-1-N-j24-1.89.H" intended="1571.TA.92-1-N-j24-1.89.H.0" depart="31610.00"/> <!-- Silvaplana, Rundella Curtins -->
        <ride busStop="506.TA.92-10-J-j24-1.71.H.34" lines="1004.TA.92-2-L-j24-1.15.H" intended="915.TA.92-2-L-j24-1.15.H.0" depart="31970.00"/> <!-- Maloja, Posta -->
        <walk edges="894576903 -170952349#1 170952349#0 1068729371#2 -1068729371#1 1068729371#0 315159485#6 -315159485#5 -315159485#4 315159485#3 -315159485#2 -315159485#1 315159485#0 -977972909 -501346489#2" busStop="16.TA.96-290-0-j24-1.26.H.1"/> <!-- Maloja, Cad'Maté -->
        <ride busStop="14.TA.96-290-0-j24-1.25.H.12" lines="20.TA.96-290-0-j24-1.10.H" intended="22.TA.96-290-0-j24-1.10.H.0" depart="35270.00"/> <!-- Castasegna, Dogana nuova -->
        <walk edges="391661586 128157724#0 128157724#1 -1162541061#0 1162541061#1 -1162541061#2 -1162541061#3 -1162541061#4 -222975197#2" arrivalPos="6.92"/>
    </person>
    <person id="ga55" depart="30915.84" departPos="random">
        <walk edges="-56240189#2 -56240189#3 56240189#4 -56240189#5 56240189#7 -56240189#8 56240189#9 -973459742#0 -973459742#1 973459742#2 973459742#3 -888425580#0 150335026#0 150335026#1 -150335026#2 150335026#3 -150335026#4 -58413641 -58413640#0 -209755663#0 209755663#2 209755663#3" busStop="1193.TA.92-10-J-j24-1.22.R.5"/> <!-- Sils/Segl Maria, Posta -->
        <ride busStop="2545.TA.92-1-N-j24-1.95.R.3" lines="2142.TA.92-2-L-j24-1.38.R" intended="2357.TA.92-2-L-j24-1.38.R.0" depart="31970.00"/> <!-- Silvaplana, Rundella Curtins -->
        <ride busStop="1674.TA.92-1-N-j24-1.90.R.1" lines="2925.TA.92-1-N-j24-1.101.R" intended="3006.TA.92-1-N-j24-1.101.R.0" depart="32570.00"/> <!-- St. Moritz Bad, Hallenbad -->
        <ride busStop="1674.TA.92-1-N-j24-1.90.R.2" lines="1003.TA.92-9-H-j24-1.10.H" intended="707.TA.92-9-H-j24-1.10.H.0" depart="32990.00"/> <!-- St. Moritz Bad, Sonne -->
        <ride busStop="1674.TA.92-1-N-j24-1.90.R.3" lines="2925.TA.92-1-N-j24-1.101.R" intended="3006.TA.92-1-N-j24-1.101.R.0" depart="33110.00"/> <!-- St. Moritz Bad, Kath. Kirche -->
        <walk edges="-30957915 51814854 -89726026#0 -89726026#1 89726026#2 -89726026#3" arrivalPos="6.51"/>
    </person>
    <person id="gb55" depart="30915.84" departPos="random">
        <walk edges="-56240189#2 -56240189#3 56240189#4 -56240189#5 56240189#7 -56240189#8 56240189#9 -973459742#0 -973459742#1 973459742#2 973459742#3 -888425580#0 150335026#0 150335026#1 -150335026#2 150335026#3 -150335026#4 -58413641 -58413640#0 -209755663#0 209755663#2 209755663#3" busStop="1193.TA.92-10-J-j24-1.22.R.5"/> <!-- Sils/Segl Maria, Posta -->
        <ride busStop="2545.TA.92-1-N-j24-1.95.R.3" lines="2142.TA.92-2-L-j24-1.38.R" intended="2357.TA.92-2-L-j24-1.38.R.0" depart="31970.00"/> <!-- Silvaplana, Rundella Curtins -->
        <ride busStop="1674.TA.92-1-N-j24-1.90.R.1" lines="2925.TA.92-1-N-j24-1.101.R" intended="3006.TA.92-1-N-j24-1.101.R.0" depart="32570.00"/> <!-- St. Moritz Bad, Hallenbad -->
        <ride busStop="1674.TA.92-1-N-j24-1.90.R.2" lines="1003.TA.92-9-H-j24-1.10.H" intended="707.TA.92-9-H-j24-1.10.H.0" depart="32990.00"/> <!-- St. Moritz Bad, Sonne -->
        <ride busStop="1674.TA.92-1-N-j24-1.90.R.3" lines="2925.TA.92-1-N-j24-1.101.R" intended="3006.TA.92-1-N-j24-1.101.R.0" depart="33110.00"/> <!-- St. Moritz Bad, Kath. Kirche -->
        <walk edges="-30957915 51814854 -89726026#0 -89726026#1 89726026#2 -89726026#3" arrivalPos="94.54"/>
    </person>
    <person id="ga131" depart="30962.87" departPos="random">
        <walk edges="-188731354#1 -1428300393#0 1188934794 188730896#1 188730896#0 69347933#1 69347933#0 1068735334 154770319#4 -154770319#3 154770319#2 154770319#1 154770319#0 -25303487#4" busStop="1323.TA.92-1-N-j24-1.88.H.19"/> <!-- St. Moritz Bad, Via Salet -->
        <ride busStop="1323.TA.92-1-N-j24-1.88.H.20" lines="333.TA.92-6-I-j24-1.3.H" intended="653.TA.92-6-I-j24-1.3.H.0" depart="32450.00"/> <!-- St. Moritz Bad, Kath. Kirche -->
        <walk edges="30957915 51814854 -89726026#0 -89726026#1 89726026#2 89726026#3 -1113136564#0 -1113136564#1 14014143#0" arrivalPos="17.50"/>
    </person>
    <person id="gb131" depart="30962.87" departPos="random">
        <walk edges="-188731354#1 -1428300393#0 1188934794 188730896#1 188730896#0 69347933#1 69347933#0 1068735334 154770319#4 -154770319#3 154770319#2 154770319#1 154770319#0 -25303487#4" busStop="1323.TA.92-1-N-j24-1.88.H.19"/> <!-- St. Moritz Bad, Via Salet -->
        <ride busStop="1323.TA.92-1-N-j24-1.88.H.20" lines="333.TA.92-6-I-j24-1.3.H" intended="653.TA.92-6-I-j24-1.3.H.0" depart="32450.00"/> <!-- St. Moritz Bad, Kath. Kirche -->
        <walk edges="30957915 51814854 -89726026#0 -89726026#1 89726026#2 89726026#3 -1113136564#0 -1113136564#1 14014143#0" arrivalPos="37.15"/>
    </person>
    <person id="ga26" depart="31079.74" departPos="random">
        <walk edges="502426858 633986854#1" busStop="36.TA.96-290-0-j24-1.27.R.10"/> <!-- Casaccia, Villaggio -->
        <ride busStop="36.TA.96-290-0-j24-1.27.R.12" lines="48.TA.96-290-0-j24-1.17.R" intended="48.TA.96-290-0-j24-1.17.R.0" depart="32030.00"/> <!-- Maloja, Cad'Maté -->
        <walk edges="977972909 -315159485#0 -315159485#1 315159485#2 315159485#3 315159485#4 -315159485#5 -315159485#6 1068729371#0 -1068729371#1 -1068729371#2 170952349#0 -170952349#1 -977972910" busStop="1193.TA.92-10-J-j24-1.22.R.0"/> <!-- Maloja, Posta -->
        <ride busStop="2545.TA.92-1-N-j24-1.95.R.3" lines="48.TA.96-290-0-j24-1.17.R" intended="48.TA.96-290-0-j24-1.17.R.0" depart="33050.00"/> <!-- Silvaplana, Rundella Curtins -->
        <ride busStop="1674.TA.92-1-N-j24-1.90.R.0" lines="2545.TA.92-1-N-j24-1.95.R" intended="2613.TA.92-1-N-j24-1.95.R.0" depart="34370.00"/> <!-- St. Moritz Bad, Via San Gian -->
        <walk edges="170952324#1 -170952324#1" busStop="1323.TA.92-1-N-j24-1.88.H.23"/> <!-- St. Moritz Bad, Via San Gian -->
        <ride busStop="1674.TA.92-1-N-j24-1.90.R.2" lines="1003.TA.92-9-H-j24-1.10.H" intended="1003.TA.92-9-H-j24-1.10.H.0" depart="34790.00"/> <!-- St. Moritz Bad, Sonne -->
        <ride busStop="1674.TA.92-1-N-j24-1.90.R.3" lines="2545.TA.92-1-N-j24-1.95.R" intended="2613.TA.92-1-N-j24-1.95.R.0" depart="34910.00"/> <!-- St. Moritz Bad, Kath. Kirche -->
        <walk edges="-30957915 51814854 -89726026#0 -89726026#1 89726026#2 89726026#3 -1113136564#0 -1113136564#1 14014143#0" arrivalPos="2.51"/>
    </person>
    <person id="gb26" depart="31079.74" departPos="random">
        <walk edges="502426858 633986854#1" busStop="36.TA.96-290-0-j24-1.27.R.10"/> <!-- Casaccia, Villaggio -->
        <ride busStop="36.TA.96-290-0-j24-1.27.R.12" lines="48.TA.96-290-0-j24-1.17.R" intended="48.TA.96-290-0-j24-1.17.R.0" depart="32030.00"/> <!-- Maloja, Cad'Maté -->
        <walk edges="977972909 -315159485#0 -315159485#1 315159485#2 315159485#3 315159485#4 -315159485#5 -315159485#6 1068729371#0 -1068729371#1 -1068729371#2 170952349#0 -170952349#1 -977972910" busStop="1193.TA.92-10-J-j24-1.22.R.0"/> <!-- Maloja, Posta -->
        <ride busStop="2545.TA.92-1-N-j24-1.95.R.3" lines="48.TA.96-290-0-j24-1.17.R" intended="48.TA.96-290-0-j24-1.17.R.0" depart="33050.00"/> <!-- Silvaplana, Rundella Curtins -->
        <ride busStop="1674.TA.92-1-N-j24-1.90.R.0" lines="2545.TA.92-1-N-j24-1.95.R" intended="2613.TA.92-1-N-j24-1.95.R.0" depart="34370.00"/> <!-- St. Moritz Bad, Via San Gian -->
        <walk edges="170952324#1 -170952324#1" busStop="1323.TA.92-1-N-j24-1.88.H.23"/> <!-- St. Moritz Bad, Via San Gian -->
        <ride busStop="1674.TA.92-1-N-j24-1.90.R.2" lines="1003.TA.92-9-H-j24-1.10.H" intended="1003.TA.92-9-H-j24-1.10.H.0" depart="34790.00"/> <!-- St. Moritz Bad, Sonne -->
        <ride busStop="1674.TA.92-1-N-j24-1.90.R.3" lines="2545.TA.92-1-N-j24-1.95.R" intended="2613.TA.92-1-N-j24-1.95.R.0" depart="34910.00"/> <!-- St. Moritz Bad, Kath. Kirche -->
        <walk edges="-30957915 51814854 -89726026#0 -89726026#1 89726026#2 89726026#3 -1113136564#0 -1113136564#1 14014143#0" arrivalPos="27.88"/>
    </person>
    <person id="ga22" depart="31113.27" departPos="random">
        <walk edges="1426892794#1 1426892794#0 -391649038#1 -391649038#2 1426892796 1426892784 1426892782 472298258 1104477696 -171771381#0 171771381#1 -171771381#2 23844223 -23844224 -120840218#0 120840218#1 -120840218#2 -120840218#3 -120840218#4 391657349 502426851#0 -391657350#0 391657350#1 -502426852#0 -502426852#1 502426852#2 -502426852#3 -1083276369#0 -1083276369#1 1083276369#2 1083276369#3" busStop="36.TA.96-290-0-j24-1.27.R.4"/> <!-- Stampa, Villaggio -->
        <ride busStop="36.TA.96-290-0-j24-1.27.R.5" lines="52.TA.96-290-0-j24-1.29.R" intended="55.TA.96-290-0-j24-1.29.R.0" depart="34550.00"/> <!-- Vicosoprano, Helvetia -->
        <walk edges="502426855#1 -502426855#2 -1083276373 -1169006585 31060929#0 -31060929#1 -31060929#2 1101989249" arrivalPos="8.09"/>
    </person>
    <person id="gb22" depart="31113.27" departPos="random">
        <walk edges="1426892794#1 1426892794#0 -391649038#1 -391649038#2 1426892796 1426892784 1426892782 472298258 1104477696 -171771381#0 171771381#1 -171771381#2 23844223 -23844224 -120840218#0 120840218#1 -120840218#2 -120840218#3 -120840218#4 391657349 502426851#0 -391657350#0 391657350#1 -502426852#0 -502426852#1 502426852#2 -502426852#3 -1083276369#0 -1083276369#1 1083276369#2 1083276369#3" busStop="36.TA.96-290-0-j24-1.27.R.4"/> <!-- Stampa, Villaggio -->
        <ride busStop="36.TA.96-290-0-j24-1.27.R.5" lines="52.TA.96-290-0-j24-1.29.R" intended="55.TA.96-290-0-j24-1.29.R.0" depart="34550.00"/> <!-- Vicosoprano, Helvetia -->
        <walk edges="502426855#1 -502426855#2 -1083276373 -1169006585 31060929#0 -31060929#1 -31060929#2 1101989249" arrivalPos="16.69"/>
    </person>
    <person id="ga268" depart="31121.70" departPos="random">
        <walk edges="-25412020#0 25412020#0 25412019 152337236#1 -41595601#5 41595601#4 41595601#3 -41595601#2 41595601#0 819945210#0 -1467922383 819945211 -819942944#4" busStop="1674.TA.92-1-N-j24-1.90.R.6"/> <!-- St. Moritz, Schulhausplatz -->
        <ride busStop="1323.TA.92-1-N-j24-1.88.H.14" lines="2545.TA.92-1-N-j24-1.95.R" intended="2581.TA.92-1-N-j24-1.95.R.0" depart="31730.00"/> <!-- St. Moritz, Bahnhof -->
        <walk edges="519913263#1 897620166 894622277 531892740#1" arrivalPos="43.20"/>
    </person>
    <person id="gb268" depart="31121.70" departPos="random">
        <walk edges="-25412020#0 25412020#0 25412019 152337236#1 -41595601#5 41595601#4 41595601#3 -41595601#2 41595601#0 819945210#0 -1467922383 819945211 -819942944#4" busStop="1674.TA.92-1-N-j24-1.90.R.6"/> <!-- St. Moritz, Schulhausplatz -->
        <ride busStop="1323.TA.92-1-N-j24-1.88.H.14" lines="2545.TA.92-1-N-j24-1.95.R" intended="2581.TA.92-1-N-j24-1.95.R.0" depart="31730.00"/> <!-- St. Moritz, Bahnhof -->
        <walk edges="519913263#1 897620166 894622277 531892740#1" arrivalPos="37.92"/>
    </person>
    <person id="ga3" depart="31307.60" departPos="random">
        <walk edges="-391657351 502426854 1083276370 -502426853 -391657356 1083276369#2 1083276369#1 1083276369#0 -502426852#3 502426852#2 502426852#1 -502426852#0 -391657350#1 -391657350#0 -502426851#0" busStop="16.TA.96-290-0-j24-1.26.H.14"/> <!-- Stampa, Palù -->
        <ride busStop="14.TA.96-290-0-j24-1.25.H.11" lines="20.TA.96-290-0-j24-1.10.H" intended="26.TA.96-290-0-j24-1.10.H.0" depart="33230.00"/> <!-- Promontogno, Posta -->
        <walk edges="120829159 1083356001 120839519#1" arrivalPos="28.97"/>
    </person>
    <person id="gb3" depart="31307.60" departPos="random">
        <walk edges="-391657351 502426854 1083276370 -502426853 -391657356 1083276369#2 1083276369#1 1083276369#0 -502426852#3 502426852#2 502426852#1 -502426852#0 -391657350#1 -391657350#0 -502426851#0" busStop="16.TA.96-290-0-j24-1.26.H.14"/> <!-- Stampa, Palù -->
        <ride busStop="14.TA.96-290-0-j24-1.25.H.11" lines="20.TA.96-290-0-j24-1.10.H" intended="26.TA.96-290-0-j24-1.10.H.0" depart="33230.00"/> <!-- Promontogno, Posta -->
        <walk edges="120829159 1083356001 120839519#1" arrivalPos="12.94"/>
    </person>
    <person id="ga215" depart="31377.22" departPos="random">
        <walk edges="-239035118#5 56195874#6 -56195874#7 -150277078#3 -150277078#2 150277078#1 256959702#3 -256959702#2 -256959702#1 -256959702#0 -1068735318#2 -1068735318#1 1068735318#0 96461185 -209755663#4 209755663#3 209755663#2 -209755663#0 1317098557 -58413641 -150335026#4 150335026#3 -150335026#2 150335026#1 150335026#0 -888425580#0 973459742#3 973459742#2 -973459742#1 -973459742#0 56240189#9 -56240189#8 -56240189#7" busStop="506.TA.92-10-J-j24-1.71.H.30"/> <!-- Sils/Segl Baselgia, Biblioteca -->
        <ride busStop="506.TA.92-10-J-j24-1.71.H.32" lines="1004.TA.92-2-L-j24-1.15.H" intended="915.TA.92-2-L-j24-1.15.H.0" depart="32630.00"/> <!-- Plaun da Lej -->
        <walk edges="208825826 -208825827#0 -208825827#2" arrivalPos="27.41"/>
    </person>
    <person id="gb215" depart="31377.22" departPos="random">
        <walk edges="-239035118#5 56195874#6 -56195874#7 -150277078#3 -150277078#2 150277078#1 256959702#3 -256959702#2 -256959702#1 -256959702#0 -1068735318#2 -1068735318#1 1068735318#0 96461185 -209755663#4 209755663#3 209755663#2 -209755663#0 1317098557 -58413641 -150335026#4 150335026#3 -150335026#2 150335026#1 150335026#0 -888425580#0 973459742#3 973459742#2 -973459742#1 -973459742#0 56240189#9 -56240189#8 -56240189#7" busStop="506.TA.92-10-J-j24-1.71.H.30"/> <!-- Sils/Segl Baselgia, Biblioteca -->