<?xml version="1.0" encoding="UTF-8"?>

<!-- generated by Eclipse SUMO duarouter 1.26.0
<duarouterConfiguration xmlns:xsi="http://www.w3.org/2001/XMLSchema-instance" xsi:noNamespaceSchemaLocation="http://sumo.dlr.de/xsd/duarouterConfiguration.xsd">

    <input>
        <net-file value="D:\Dokumente\sumo\maloja\simple.net.xml"/>
        <additional-files value="D:\Dokumente\sumo\maloja\taz_maloja_simple.add.xml,D:\Dokumente\sumo\maloja\04_shopping\taz_shopping.add.xml,D:\Dokumente\sumo\maloja\03_bus\virtualstop.add.xml,D:\Dokumente\sumo\maloja\03_bus\03_November\vtypes.xml,D:\Dokumente\sumo\maloja\03_bus\03_November\gtfs_pt_stops.add.xml"/>
        <route-files value="D:\Dokumente\sumo\maloja\04_shopping\persontrips_maloja_shopping_modded_doubled_taxi.xml"/>
    </input>

    <output>
        <output-file value="D:\Dokumente\sumo\maloja\04_shopping\persontrips_maloja_shopping_offseason_taxi_resolved.rou.xml"/>
    </output>

    <processing>
        <persontrip.transfer.taxi-walk value="ptStops"/>
        <persontrip.transfer.walk-taxi value="ptStops"/>
    </processing>

    <report>
        <verbose value="true"/>
    </report>

</duarouterConfiguration>
-->

<routes xmlns:xsi="http://www.w3.org/2001/XMLSchema-instance" xsi:noNamespaceSchemaLocation="http://sumo.dlr.de/xsd/routes_file.xsd">
    <person id="ga27" depart="28958.69" departPos="random">
        <walk edges="171771428#3 -171771428#3 171771398 -889967615 -171771447#5 171771447#4 -171771447#3 171771447#2 171771447#1 -41157381 120839520 62065386" busStop="1.TA.96-290-3-j24-1.1.H.0"/> <!-- Soglio, Villaggio -->
        <ride from="62065386" to="1113136564#0" busStop="1.TA.92-4-Q-j24-1.7.R.12" lines="taxi"/> <!-- St. Moritz Bad, Reithalle -->
        <walk edges="1113136564#0 -1113136564#1 14014143#0 14014143#1" arrivalPos="134.62"/>
    </person>
    <person id="gb27" depart="28958.69" departPos="random">
        <walk edges="171771428#3 -171771428#3 171771398 -889967615 -171771447#5 171771447#4 -171771447#3 171771447#2 171771447#1 -41157381 120839520 62065386" busStop="1.TA.96-290-3-j24-1.1.H.0"/> <!-- Soglio, Villaggio -->
        <ride from="62065386" to="1113136564#0" busStop="1.TA.92-4-Q-j24-1.7.R.12" lines="taxi"/> <!-- St. Moritz Bad, Reithalle -->
        <walk edges="1113136564#0 -1113136564#1 14014143#0 14014143#1" arrivalPos="107.65"/>
    </person>
    <person id="ga166" depart="29015.86" departPos="random">
        <walk edges="-926207664 -1068735336#2 -1068735336#1 1068735336#0 25303490 819945209 -1467922383 819945211 -819942944#4 819942944#3" busStop="1008.TA.92-1-N-j24-1.88.H.15"/> <!-- St. Moritz, Klinik Gut -->
        <ride from="819942944#3" to="1113136564#0" busStop="1.TA.92-4-Q-j24-1.7.R.12" lines="taxi"/> <!-- St. Moritz Bad, Reithalle -->
        <walk edges="1113136564#0 -1113136564#1 14014143#0" arrivalPos="2.47"/>
    </person>
    <person id="gb166" depart="29015.86" departPos="random">
        <walk edges="-926207664 -1068735336#2 -1068735336#1 1068735336#0 25303490 819945209 -1467922383 819945211 -819942944#4 819942944#3" busStop="1008.TA.92-1-N-j24-1.88.H.15"/> <!-- St. Moritz, Klinik Gut -->
        <ride from="819942944#3" to="1113136564#0" busStop="1.TA.92-4-Q-j24-1.7.R.12" lines="taxi"/> <!-- St. Moritz Bad, Reithalle -->
        <walk edges="1113136564#0 -1113136564#1 14014143#0" arrivalPos="26.71"/>
    </person>
    <person id="ga72" depart="29122.82" departPos="random">
        <walk edges="-30957916#2 30957916#1" busStop="1008.TA.92-1-N-j24-1.88.H.28"/> <!-- Surlej, Foppas -->
        <ride from="30957916#1" to="-89726026#3" busStop="114.TA.92-9-H-j24-1.10.H.3" lines="taxi"/> <!-- St. Moritz Bad, Reithalle -->
        <walk edges="-89726026#3" arrivalPos="63.70"/>
    </person>
    <person id="gb72" depart="29122.82" departPos="random">
        <walk edges="-30957916#2 30957916#1" busStop="1008.TA.92-1-N-j24-1.88.H.28"/> <!-- Surlej, Foppas -->
        <ride from="30957916#1" to="-89726026#3" busStop="114.TA.92-9-H-j24-1.10.H.3" lines="taxi"/> <!-- St. Moritz Bad, Reithalle -->
        <walk edges="-89726026#3" arrivalPos="4.71"/>
    </person>
    <person id="ga176" depart="29493.28" departPos="random">
        <walk edges="37804543#2 -37804543#1 37804543#0 -120840712#3 -47578286 120840712#0 903531446 519913265#0 519913265#1" busStop="vbs_St_Moritz_extra_cap"/>
        <ride from="519913265#1" to="1113136564#0" busStop="1.TA.92-4-Q-j24-1.7.R.12" lines="taxi"/> <!-- St. Moritz Bad, Reithalle -->
        <walk edges="1113136564#0 -1113136564#1 14014143#0 14014143#1" arrivalPos="112.30"/>
    </person>
    <person id="gb176" depart="29493.28" departPos="random">
        <walk edges="37804543#2 -37804543#1 37804543#0 -120840712#3 -47578286 120840712#0 903531446 519913265#0 519913265#1" busStop="vbs_St_Moritz_extra_cap"/>
        <ride from="519913265#1" to="1113136564#0" busStop="1.TA.92-4-Q-j24-1.7.R.12" lines="taxi"/> <!-- St. Moritz Bad, Reithalle -->
        <walk edges="1113136564#0 -1113136564#1 14014143#0 14014143#1" arrivalPos="37.39"/>
    </person>
    <person id="ga179" depart="30036.36" departPos="random">
        <walk edges="152517443#2 -152517443#1" busStop="1008.TA.92-1-N-j24-1.88.H.17"/> <!-- St. Moritz, Caspar Badrutt -->
        <ride from="-152517443#1" to="-89726026#3" busStop="114.TA.92-9-H-j24-1.10.H.3" lines="taxi"/> <!-- St. Moritz Bad, Reithalle -->
        <walk edges="-89726026#3" arrivalPos="58.87"/>
    </person>
    <person id="gb179" depart="30036.36" departPos="random">
        <walk edges="152517443#2 -152517443#1" busStop="1008.TA.92-1-N-j24-1.88.H.17"/> <!-- St. Moritz, Caspar Badrutt -->
        <ride from="-152517443#1" to="-89726026#3" busStop="114.TA.92-9-H-j24-1.10.H.3" lines="taxi"/> <!-- St. Moritz Bad, Reithalle -->
        <walk edges="-89726026#3" arrivalPos="80.45"/>
    </person>
    <person id="ga99" depart="30199.14" departPos="random">
        <walk edges="1428300394 -196520689#2 -196520689#1 196520689#0 740109140" busStop="vbs_ski_corviglia_valley_chasellas"/>
        <ride from="740109140" to="25412019" busStop="262.TA.92-10-J-j24-1.4.H.10" lines="taxi"/> <!-- St. Moritz, Schulhausplatz -->
        <walk edges="25412019 25412020#0 -25412020#0" arrivalPos="0.29"/>
    </person>
    <person id="gb99" depart="30199.14" departPos="random">
        <walk edges="1428300394 -196520689#2 -196520689#1 196520689#0 740109140" busStop="vbs_ski_corviglia_valley_chasellas"/>
        <ride from="740109140" to="25412019" busStop="262.TA.92-10-J-j24-1.4.H.10" lines="taxi"/> <!-- St. Moritz, Schulhausplatz -->
        <walk edges="25412019 -25412020#0" arrivalPos="32.66"/>
    </person>
    <person id="ga127" depart="30393.62" departPos="random">
        <walk edges="152517715#1 -152517715#1 -152517715#3" busStop="1008.TA.92-1-N-j24-1.88.H.18"/> <!-- St. Moritz Bad, Via Aruons -->
        <ride from="-152517715#3" to="-89726026#3" busStop="114.TA.92-9-H-j24-1.10.H.3" lines="taxi"/> <!-- St. Moritz Bad, Reithalle -->
        <walk edges="-89726026#3" arrivalPos="50.33"/>
    </person>
    <person id="gb127" depart="30393.62" departPos="random">
        <walk edges="152517715#1 -152517715#1 -152517715#3" busStop="1008.TA.92-1-N-j24-1.88.H.18"/> <!-- St. Moritz Bad, Via Aruons -->
        <ride from="-152517715#3" to="-89726026#3" busStop="114.TA.92-9-H-j24-1.10.H.3" lines="taxi"/> <!-- St. Moritz Bad, Reithalle -->
        <walk edges="-89726026#3" arrivalPos="48.81"/>
    </person>
    <person id="ga286" depart="30906.36" departPos="random">
        <walk edges="14014143#0 -1113136564#1 1113136564#0" busStop="1.TA.92-4-Q-j24-1.7.R.12"/> <!-- St. Moritz Bad, Reithalle -->
        <ride from="1113136564#0" to="391661586" busStop="14.TA.96-290-0-j24-1.25.H.12" lines="taxi"/> <!-- Castasegna, Dogana nuova -->
        <walk edges="391661586 128157724#0 128157724#1 -1162541061#0 1162541061#1 -1162541061#2 -1162541061#3 -1162541061#4 -222975197#2" arrivalPos="14.81"/>
    </person>
    <person id="gb286" depart="30906.36" departPos="random">
        <walk edges="14014143#0 -1113136564#1 1113136564#0" busStop="1.TA.92-4-Q-j24-1.7.R.12"/> <!-- St. Moritz Bad, Reithalle -->
        <ride from="1113136564#0" to="391661586" busStop="14.TA.96-290-0-j24-1.25.H.12" lines="taxi"/> <!-- Castasegna, Dogana nuova -->
        <walk edges="391661586 128157724#0 128157724#1 -1162541061#0 1162541061#1 -1162541061#2 -1162541061#3 -1162541061#4 -222975197#2" arrivalPos="6.92"/>
    </person>
    <person id="ga55" depart="30915.84" departPos="random">
        <walk edges="-56240189#2 56240189#2 -56240189#0" busStop="459.TA.92-10-J-j24-1.71.H.31"/> <!-- Sils/Segl Baselgia,San Lurench -->
        <ride from="-56240189#0" to="-89726026#3" busStop="114.TA.92-9-H-j24-1.10.H.3" lines="taxi"/> <!-- St. Moritz Bad, Reithalle -->
        <walk edges="-89726026#3" arrivalPos="6.51"/>
    </person>
    <person id="gb55" depart="30915.84" departPos="random">
        <walk edges="-56240189#2 56240189#2 -56240189#0" busStop="459.TA.92-10-J-j24-1.71.H.31"/> <!-- Sils/Segl Baselgia,San Lurench -->
        <ride from="-56240189#0" to="-89726026#3" busStop="114.TA.92-9-H-j24-1.10.H.3" lines="taxi"/> <!-- St. Moritz Bad, Reithalle -->
        <walk edges="-89726026#3" arrivalPos="94.54"/>
    </person>
    <person id="ga131" depart="30962.87" departPos="random">
        <walk edges="-188731354#1 -1428300393#0 1188934794 188730896#1 188730896#0 69347933#1 69347933#0 1068735334 -25303488#4" busStop="1286.TA.92-2-L-j24-1.22.R.4"/> <!-- St. Moritz, Somplaz -->
        <ride from="-25303488#4" to="1113136564#0" busStop="1.TA.92-4-Q-j24-1.7.R.12" lines="taxi"/> <!-- St. Moritz Bad, Reithalle -->
        <walk edges="1113136564#0 -1113136564#1 14014143#0" arrivalPos="17.50"/>
    </person>
    <person id="gb131" depart="30962.87" departPos="random">
        <walk edges="-188731354#1 -1428300393#0 1188934794 188730896#1 188730896#0 69347933#1 69347933#0 1068735334 -25303488#4" busStop="1286.TA.92-2-L-j24-1.22.R.4"/> <!-- St. Moritz, Somplaz -->
        <ride from="-25303488#4" to="1113136564#0" busStop="1.TA.92-4-Q-j24-1.7.R.12" lines="taxi"/> <!-- St. Moritz Bad, Reithalle -->
        <walk edges="1113136564#0 -1113136564#1 14014143#0" arrivalPos="37.15"/>
    </person>
    <person id="ga26" depart="31079.74" departPos="random">
        <walk edges="502426858 633986854#1" busStop="36.TA.96-290-0-j24-1.27.R.10"/> <!-- Casaccia, Villaggio -->
        <ride from="633986854#1" to="1113136564#0" busStop="1.TA.92-4-Q-j24-1.7.R.12" lines="taxi"/> <!-- St. Moritz Bad, Reithalle -->
        <walk edges="1113136564#0 -1113136564#1 14014143#0" arrivalPos="2.51"/>
    </person>
    <person id="gb26" depart="31079.74" departPos="random">
        <walk edges="502426858 633986854#1" busStop="36.TA.96-290-0-j24-1.27.R.10"/> <!-- Casaccia, Villaggio -->
        <ride from="633986854#1" to="1113136564#0" busStop="1.TA.92-4-Q-j24-1.7.R.12" lines="taxi"/> <!-- St. Moritz Bad, Reithalle -->
        <walk edges="1113136564#0 -1113136564#1 14014143#0" arrivalPos="27.88"/>
    </person>
    <person id="ga22" depart="31113.27" departPos="random">
        <walk edges="1426892794#1 1426892794#2 1426892794#3" busStop="16.TA.96-290-0-j24-1.26.H.16"/> <!-- Promontogno, Punt Spizarun -->
        <ride from="1426892794#3" to="502426855#1" busStop="36.TA.96-290-0-j24-1.27.R.5" lines="taxi"/> <!-- Vicosoprano, Helvetia -->
        <walk edges="502426855#1 -502426855#2 -1083276373 -1169006585 31060929#0 -31060929#1 -31060929#2 1101989249" arrivalPos="8.09"/>
    </person>
    <person id="gb22" depart="31113.27" departPos="random">
        <walk edges="1426892794#1 1426892794#2 1426892794#3" busStop="16.TA.96-290-0-j24-1.26.H.16"/> <!-- Promontogno, Punt Spizarun -->
        <ride from="1426892794#3" to="502426855#1" busStop="36.TA.96-290-0-j24-1.27.R.5" lines="taxi"/> <!-- Vicosoprano, Helvetia -->
        <walk edges="502426855#1 -502426855#2 -1083276373 -1169006585 31060929#0 -31060929#1 -31060929#2 1101989249" arrivalPos="16.69"/>
    </person>
    <person id="ga268" depart="31121.70" departPos="random">
        <walk edges="-25412020#0 25412020#0 25412019" busStop="262.TA.92-10-J-j24-1.4.H.10"/> <!-- St. Moritz, Schulhausplatz -->
        <ride from="25412019" to="519913257#1" busStop="1.TA.92-4-Q-j24-1.7.R.13" lines="taxi"/> <!-- St. Moritz, Bahnhof -->
        <walk edges="519913257#1 531892740#1" arrivalPos="43.20"/>
    </person>
    <person id="gb268" depart="31121.70" departPos="random">
        <walk edges="-25412020#0 25412020#0 25412019" busStop="262.TA.92-10-J-j24-1.4.H.10"/> <!-- St. Moritz, Schulhausplatz -->
        <ride from="25412019" to="519913257#1" busStop="1.TA.92-4-Q-j24-1.7.R.13" lines="taxi"/> <!-- St. Moritz, Bahnhof -->
        <walk edges="519913257#1 531892740#1" arrivalPos="37.92"/>
    </person>
    <person id="ga3" depart="31307.60" departPos="random">
        <walk edges="-391657351 1006709161 -120829163#0 -120829163#1 -1083351550#0" busStop="16.TA.96-290-0-j24-1.26.H.11"/> <!-- Borgonovo, Villaggio -->
        <ride from="-1083351550#0" to="120829159" busStop="1.TA.96-290-3-j24-1.1.H.4" lines="taxi"/> <!-- Promontogno, Posta -->
        <walk edges="120829159 1083356001 120839519#1" arrivalPos="28.97"/>
    </person>
    <person id="gb3" depart="31307.60" departPos="random">
        <walk edges="-391657351 1006709161 -120829163#0 -120829163#1 -1083351550#0" busStop="16.TA.96-290-0-j24-1.26.H.11"/> <!-- Borgonovo, Villaggio -->
        <ride from="-1083351550#0" to="120829159" busStop="1.TA.96-290-3-j24-1.1.H.4" lines="taxi"/> <!-- Promontogno, Posta -->
        <walk edges="120829159 1083356001 120839519#1" arrivalPos="12.94"/>
    </person>
    <person id="ga215" depart="31377.22" departPos="random">
        <walk edges="-239035118#5 56195874#6 -56195874#7 150277078#4 -150277078#5 -1472605488#0 1472605488#1 1472605488#2" busStop="1136.TA.92-10-J-j24-1.22.R.6"/> <!-- Sils/Segl Maria, Seglias -->
        <ride from="1472605488#2" to="208825826" busStop="459.TA.92-10-J-j24-1.71.H.32" lines="taxi"/> <!-- Plaun da Lej -->
        <walk edges="208825826 -208825827#0 -208825827#2" arrivalPos="27.41"/>
    </person>
    <person id="gb215" depart="31377.22" departPos="random">
        <walk edges="-239035118#5 56195874#6 -56195874#7 150277078#4 -150277078#5 -1472605488#0 1472605488#1 1472605488#2" busStop="1136.TA.92-10-J-j24-1.22.R.6"/> <!-- Sils/Segl Maria, Seglias -->
        <ride from="1472605488#2" to="208825826" busStop="459.TA.92-10-J-j24-1.71.H.32" lines="taxi"/> <!-- Plaun da Lej -->
        <walk edges="208825826 -208825827#0 -208825827#2" arrivalPos="11.92"/>
    </person>
    <person id="ga140" depart="31504.36" departPos="random">
        <walk edges="-578147406 -268146940#2 268146940#3 -268146940#4 -268146940#5 -268146940#6" busStop="262.TA.92-10-J-j24-1.4.H.9"/> <!-- St. Moritz, Kulm -->
        <ride from="-268146940#6" to="1113136564#0" busStop="1.TA.92-4-Q-j24-1.7.R.12" lines="taxi"/> <!-- St. Moritz Bad, Reithalle -->
        <walk edges="1113136564#0 -1113136564#1 14014143#0 14014143#1" arrivalPos="4.90"/>
    </person>
    <person id="gb140" depart="31504.36" departPos="random">
        <walk edges="-578147406 -268146940#2 268146940#3 -268146940#4 -268146940#5 -268146940#6" busStop="262.TA.92-10-J-j24-1.4.H.9"/> <!-- St. Moritz, Kulm -->
        <ride from="-268146940#6" to="1113136564#0" busStop="1.TA.92-4-Q-j24-1.7.R.12" lines="taxi"/> <!-- St. Moritz Bad, Reithalle -->
        <walk edges="1113136564#0 -1113136564#1 14014143#0 14014143#1" arrivalPos="45.59"/>
    </person>
    <person id="ga154" depart="31668.27" departPos="random">
        <walk edges="25303487#4 -25303487#4" busStop="1008.TA.92-1-N-j24-1.88.H.19"/> <!-- St. Moritz Bad, Via Salet -->
        <ride from="-25303487#4" to="1113136564#0" busStop="1.TA.92-4-Q-j24-1.7.R.12" lines="taxi"/> <!-- St. Moritz Bad, Reithalle -->
        <walk edges="1113136564#0 -1113136564#1 14014143#0" arrivalPos="41.55"/>
    </person>
    <person id="gb154" depart="31668.27" departPos="random">
        <walk edges="25303487#4 -25303487#4" busStop="1008.TA.92-1-N-j24-1.88.H.19"/> <!-- St. Moritz Bad, Via Salet -->
        <ride from="-25303487#4" to="1113136564#0" busStop="1.TA.92-4-Q-j24-1.7.R.12" lines="taxi"/> <!-- St. Moritz Bad, Reithalle -->
        <walk edges="1113136564#0 -1113136564#1 14014143#0" arrivalPos="8.65"/>
    </person>
    <person id="ga163" depart="31837.56" departPos="random">
        <walk edges="30957906 1068735330#7" busStop="2386.TA.92-1-N-j24-1.93.R.0"/> <!-- Champfèr, Guardalej -->
        <ride from="1068735330#7" to="1113136564#0" busStop="1.TA.92-4-Q-j24-1.7.R.12" lines="taxi"/> <!-- St. Moritz Bad, Reithalle -->
        <walk edges="1113136564#0 -1113136564#1 14014143#0" arrivalPos="51.99"/>
    </person>
    <person id="gb163" depart="31837.56" departPos="random">
        <walk edges="30957906 1068735330#7" busStop="2386.TA.92-1-N-j24-1.93.R.0"/> <!-- Champfèr, Guardalej -->
        <ride from="1068735330#7" to="1113136564#0" busStop="1.TA.92-4-Q-j24-1.7.R.12" lines="taxi"/> <!-- St. Moritz Bad, Reithalle -->
        <walk edges="1113136564#0 -1113136564#1 14014143#0" arrivalPos="1.62"/>
    </person>
    <person id="ga187" depart="31898.74" departPos="random">
        <walk edges="120839519#1 1083356001 120829159" busStop="1.TA.96-290-3-j24-1.1.H.4"/> <!-- Promontogno, Posta -->
        <ride from="120829159" to="1083273108#2" busStop="48.TA.96-290-0-j24-1.17.R.10" lines="taxi"/> <!-- Vicosoprano, Camping -->
        <walk edges="1083273108#2 123066460 1083299692 1083273109" arrivalPos="34.52"/>
    </person>
    <person id="gb187" depart="31898.74" departPos="random">
        <walk edges="120839519#1 1083356001 120829159" busStop="1.TA.96-290-3-j24-1.1.H.4"/> <!-- Promontogno, Posta -->
        <ride from="120829159" to="1083273108#2" busStop="48.TA.96-290-0-j24-1.17.R.10" lines="taxi"/> <!-- Vicosoprano, Camping -->
        <walk edges="1083273108#2 123066460 1083299692 1083273109" arrivalPos="16.69"/>
    </person>
    <person id="ga290" depart="32163.96" departPos="random">
        <walk edges="14014143#1 14014143#0 -1113136564#1 1113136564#0" busStop="1.TA.92-4-Q-j24-1.7.R.12"/> <!-- St. Moritz Bad, Reithalle -->
        <ride from="1113136564#0" to="391661586" busStop="14.TA.96-290-0-j24-1.25.H.12" lines="taxi"/> <!-- Castasegna, Dogana nuova -->
        <walk edges="391661586 128157724#0 128157724#1 -1162541061#0 1162541061#1 -1162541061#2 -1162541061#3 -186947410#0" arrivalPos="12.80"/>
    </person>
    <person id="gb290" depart="32163.96" departPos="random">
        <walk edges="14014143#1 14014143#0 -1113136564#1 1113136564#0" busStop="1.TA.92-4-Q-j24-1.7.R.12"/> <!-- St. Moritz Bad, Reithalle -->
        <ride from="1113136564#0" to="391661586" busStop="14.TA.96-290-0-j24-1.25.H.12" lines="taxi"/> <!-- Castasegna, Dogana nuova -->
        <walk edges="391661586 128157724#0 128157724#1 -1162541061#0 1162541061#1 -1162541061#2 -1162541061#3 -186947410#0" arrivalPos="12.41"/>
    </person>
    <person id="ga71" depart="32165.36" departPos="random">
        <walk edges="-679130967#0 -25475987#1 25475987#0 25418591#5" busStop="2467.TA.92-1-N-j24-1.95.R.1"/> <!-- Surlej, Foppas -->
        <ride from="25418591#5" to="1113136564#0" busStop="1.TA.92-4-Q-j24-1.7.R.12" lines="taxi"/> <!-- St. Moritz Bad, Reithalle -->
        <walk edges="1113136564#0 -1113136564#1 14014143#0 14014143#1" arrivalPos="62.15"/>
    </person>
    <person id="gb71" depart="32165.36" departPos="random">
        <walk edges="-679130967#0 -25475987#1 25475987#0 25418591#5" busStop="2467.TA.92-1-N-j24-1.95.R.1"/> <!-- Surlej, Foppas -->
        <ride from="25418591#5" to="1113136564#0" busStop="1.TA.92-4-Q-j24-1.7.R.12" lines="taxi"/> <!-- St. Moritz Bad, Reithalle -->
        <walk edges="1113136564#0 -1113136564#1 14014143#0 14014143#1" arrivalPos="145.73"/>
    </person>
    <person id="ga29" depart="32263.84" departPos="random">
        <walk edges="171771388#3 171771388#2 1426892793#0 -1426892793#1 -391649038#1 -391649038#2 1426892794#3" busStop="16.TA.96-290-0-j24-1.26.H.16"/> <!-- Promontogno, Punt Spizarun -->
        <ride from="1426892794#3" to="1113136564#0" busStop="1.TA.92-4-Q-j24-1.7.R.12" lines="taxi"/> <!-- St. Moritz Bad, Reithalle -->
        <walk edges="1113136564#0 -1113136564#1 14014143#0" arrivalPos="14.35"/>
    </person>
    <person id="gb29" depart="32263.84" departPos="random">
        <walk edges="171771388#3 171771388#2 1426892793#0 -1426892793#1 -391649038#1 -391649038#2 1426892794#3" busStop="16.TA.96-290-0-j24-1.26.H.16"/> <!-- Promontogno, Punt Spizarun -->
        <ride from="1426892794#3" to="1113136564#0" busStop="1.TA.92-4-Q-j24-1.7.R.12" lines="taxi"/> <!-- St. Moritz Bad, Reithalle -->
        <walk edges="1113136564#0 -1113136564#1 14014143#0" arrivalPos="12.13"/>
    </person>
    <person id="ga34" depart="32473.54" departPos="random">
        <walk edges="208825827#5 -208825827#4 -208825827#3 208825827#2 -208825827#0 -1086010096" busStop="1136.TA.92-10-J-j24-1.22.R.2"/> <!-- Plaun da Lej -->
        <ride from="-1086010096" to="-96461182#0" busStop="459.TA.92-10-J-j24-1.71.H.28" lines="taxi"/> <!-- Sils/Segl Maria, Seglias -->
        <walk edges="-96461182#0 1472605488#1 1472605488#0 -150277078#5 150277078#4 -56195874#7 56195874#6 -239035118#5" arrivalPos="2.79"/>
    </person>
    <person id="gb34" depart="32473.54" departPos="random">
        <walk edges="208825827#5 -208825827#4 -208825827#3 208825827#2 -208825827#0 -1086010096" busStop="1136.TA.92-10-J-j24-1.22.R.2"/> <!-- Plaun da Lej -->
        <ride from="-1086010096" to="-96461182#0" busStop="459.TA.92-10-J-j24-1.71.H.28" lines="taxi"/> <!-- Sils/Segl Maria, Seglias -->
        <walk edges="-96461182#0 1472605488#1 1472605488#0 -150277078#5 150277078#4 -56195874#7 56195874#6 -239035118#5" arrivalPos="9.51"/>
    </person>
    <person id="ga288" depart="32821.78" departPos="random">
        <walk edges="14014143#1 14014143#0 -1113136564#1 1113136564#0" busStop="1.TA.92-4-Q-j24-1.7.R.12"/> <!-- St. Moritz Bad, Reithalle -->
        <ride from="1113136564#0" to="-501346489#2" busStop="16.TA.96-290-0-j24-1.26.H.1" lines="taxi"/> <!-- Maloja, Cad'Maté -->
        <walk edges="-501346489#2 -501346489#1 501346489#0" arrivalPos="3.87"/>
    </person>
    <person id="gb288" depart="32821.78" departPos="random">
        <walk edges="14014143#1 14014143#0 -1113136564#1 1113136564#0" busStop="1.TA.92-4-Q-j24-1.7.R.12"/> <!-- St. Moritz Bad, Reithalle -->
        <ride from="1113136564#0" to="-501346489#2" busStop="16.TA.96-290-0-j24-1.26.H.1" lines="taxi"/> <!-- Maloja, Cad'Maté -->
        <walk edges="-501346489#2 -501346489#1 501346489#0" arrivalPos="13.02"/>
    </person>
    <person id="ga125" depart="32835.02" departPos="random">
        <walk edges="-1068735332#1 1068735332#1 -1068735332#0 -1068735333 -25303488#4" busStop="1286.TA.92-2-L-j24-1.22.R.4"/> <!-- St. Moritz, Somplaz -->
        <ride from="-25303488#4" to="1113136564#0" busStop="1.TA.92-4-Q-j24-1.7.R.12" lines="taxi"/> <!-- St. Moritz Bad, Reithalle -->
        <walk edges="1113136564#0 -1113136564#1 14014143#0 14014143#1" arrivalPos="13.45"/>
    </person>
    <person id="gb125" depart="32835.02" departPos="random">
        <walk edges="-1068735332#1 1068735332#1 -1068735332#0 -1068735333 -25303488#4" busStop="1286.TA.92-2-L-j24-1.22.R.4"/> <!-- St. Moritz, Somplaz -->
        <ride from="-25303488#4" to="1113136564#0" busStop="1.TA.92-4-Q-j24-1.7.R.12" lines="taxi"/> <!-- St. Moritz Bad, Reithalle -->
        <walk edges="1113136564#0 -1113136564#1 14014143#0 14014143#1" arrivalPos="100.95"/>
    </person>
    <person id="ga79" depart="32975.39" departPos="random">
        <walk edges="30957933 -30957932#3 30957932#2 -30957932#1 30957932#0 -96461188 30957916#1" busStop="1008.TA.92-1-N-j24-1.88.H.28"/> <!-- Surlej, Foppas -->
        <ride from="30957916#1" to="1113136564#0" busStop="1.TA.92-4-Q-j24-1.7.R.12" lines="taxi"/> <!-- St. Moritz Bad, Reithalle -->
        <walk edges="1113136564#0 -1113136564#1 14014143#0 14014143#1" arrivalPos="108.11"/>
    </person>
    <person id="gb79" depart="32975.39" departPos="random">
        <walk edges="30957933 -30957932#3 30957932#2 -30957932#1 30957932#0 -96461188 30957916#1" busStop="1008.TA.92-1-N-j24-1.88.H.28"/> <!-- Surlej, Foppas -->
        <ride from="30957916#1" to="1113136564#0" busStop="1.TA.92-4-Q-j24-1.7.R.12" lines="taxi"/> <!-- St. Moritz Bad, Reithalle -->
        <walk edges="1113136564#0 -1113136564#1 14014143#0 14014143#1" arrivalPos="90.08"/>
    </person>
    <person id="ga14" depart="33157.33" departPos="random">
        <walk edges="-171771383 550605634#0 -550605634#1 -171771430 -614559903 1083356001 120829159" busStop="1.TA.96-290-3-j24-1.1.H.4"/> <!-- Promontogno, Posta -->
        <ride from="120829159" to="502426855#1" busStop="36.TA.96-290-0-j24-1.27.R.5" lines="taxi"/> <!-- Vicosoprano, Helvetia -->
        <walk edges="502426855#1 -502426855#2 -1083276373 -1169006585 31060929#0 -31060929#1 -31060929#2 1101989249" arrivalPos="18.22"/>
    </person>
    <person id="gb14" depart="33157.33" departPos="random">
        <walk edges="-171771383 550605634#0 -550605634#1 -171771430 -614559903 1083356001 120829159" busStop="1.TA.96-290-3-j24-1.1.H.4"/> <!-- Promontogno, Posta -->
        <ride from="120829159" to="502426855#1" busStop="36.TA.96-290-0-j24-1.27.R.5" lines="taxi"/> <!-- Vicosoprano, Helvetia -->
        <walk edges="502426855#1 -502426855#2 -1083276373 -1169006585 31060929#0 -31060929#1 -31060929#2 1101989249" arrivalPos="24.63"/>
    </person>
    <person id="ga53" depart="33320.00" departPos="random">
        <walk edges="-256959702#2 -256959702#1 -256959702#0 -1068735318#2 -1068735318#1 1068735318#0 -894905824" busStop="459.TA.92-10-J-j24-1.71.H.29"/> <!-- Sils/Segl Maria, Posta -->
        <ride from="-894905824" to="1113136564#0" busStop="1.TA.92-4-Q-j24-1.7.R.12" lines="taxi"/> <!-- St. Moritz Bad, Reithalle -->
        <walk edges="1113136564#0 -1113136564#1 14014143#0" arrivalPos="52.17"/>
    </person>
    <person id="gb53" depart="33320.00" departPos="random">
        <walk edges="-256959702#2 -256959702#1 -256959702#0 -1068735318#2 -1068735318#1 1068735318#0 -894905824" busStop="459.TA.92-10-J-j24-1.71.H.29"/> <!-- Sils/Segl Maria, Posta -->
        <ride from="-894905824" to="1113136564#0" busStop="1.TA.92-4-Q-j24-1.7.R.12" lines="taxi"/> <!-- St. Moritz Bad, Reithalle -->
        <walk edges="1113136564#0 -1113136564#1 14014143#0" arrivalPos="16.73"/>
    </person>
    <person id="ga353" depart="33322.51" departPos="random">
        <walk edges="-89726026#3" busStop="114.TA.92-9-H-j24-1.10.H.3"/> <!-- St. Moritz Bad, Reithalle -->
        <ride from="-89726026#3" to="-30050433#2" busStop="1008.TA.92-1-N-j24-1.88.H.21" lines="taxi"/> <!-- St. Moritz Bad, Sonne -->
        <walk edges="-30050433#2 -30050433#1 -30050433#0" arrivalPos="6.65"/>
    </person>
    <person id="gb353" depart="33322.51" departPos="random">
        <walk edges="-89726026#3" busStop="114.TA.92-9-H-j24-1.10.H.3"/> <!-- St. Moritz Bad, Reithalle -->
        <ride from="-89726026#3" to="-30050433#2" busStop="1008.TA.92-1-N-j24-1.88.H.21" lines="taxi"/> <!-- St. Moritz Bad, Sonne -->
        <walk edges="-30050433#2 -30050433#1 -30050433#0" arrivalPos="7.84"/>
    </person>
    <person id="ga61" depart="33377.06" departPos="random">
        <walk edges="30952490#1 30952490#0 -30952483#1 30952483#0 -1068735330#1" busStop="459.TA.92-10-J-j24-1.71.H.21"/> <!-- Champfèr, Guardalej -->
        <ride from="-1068735330#1" to="18887954#0" busStop="1.TA.92-20-E-j24-1.5.H.4" lines="taxi"/> <!-- Silvaplana, Plazza dal Mastrel -->
        <walk edges="18887954#0 -116715858" arrivalPos="6.10"/>
    </person>
    <person id="gb61" depart="33377.06" departPos="random">
        <walk edges="30952490#1 30952490#0 -30952483#1 30952483#0 -1068735330#1" busStop="459.TA.92-10-J-j24-1.71.H.21"/> <!-- Champfèr, Guardalej -->
        <ride from="-1068735330#1" to="18887954#0" busStop="1.TA.92-20-E-j24-1.5.H.4" lines="taxi"/> <!-- Silvaplana, Plazza dal Mastrel -->
        <walk edges="18887954#0 -116715858" arrivalPos="34.59"/>
    </person>
    <person id="ga366" depart="33391.60" departPos="random">
        <walk edges="-89726026#3 1113136564#0" busStop="1.TA.92-4-Q-j24-1.7.R.12"/> <!-- St. Moritz Bad, Reithalle -->
        <ride from="1113136564#0" to="25303488#4" busStop="1034.TA.92-2-L-j24-1.15.H.13" lines="taxi"/> <!-- St. Moritz, Somplaz -->
        <walk edges="25303488#4 1068735334 69347933#0 -69347933#1 -188730896#0 -188730896#1 1188934794 1428300393#0 188731354#1" arrivalPos="21.26"/>
    </person>
    <person id="gb366" depart="33391.60" departPos="random">
        <walk edges="-89726026#3 1113136564#0" busStop="1.TA.92-4-Q-j24-1.7.R.12"/> <!-- St. Moritz Bad, Reithalle -->
        <ride from="1113136564#0" to="25303488#4" busStop="1034.TA.92-2-L-j24-1.15.H.13" lines="taxi"/> <!-- St. Moritz, Somplaz -->
        <walk edges="25303488#4 1068735334 69347933#0 -69347933#1 -188730896#0 -188730896#1 1188934794 1428300393#0 188731354#1" arrivalPos="74.41"/>
    </person>
    <person id="ga239" depart="33418.58" departPos="random">
        <walk edges="-116715858 18887954#0" busStop="1.TA.92-20-E-j24-1.5.H.4"/> <!-- Silvaplana, Plazza dal Mastrel -->
        <ride from="18887954#0" to="1050853710" busStop="1063.TA.92-1-N-j24-1.89.H.29" lines="taxi"/> <!-- Surlej, Corvatschbahn -->
        <walk edges="1050853710 -1050853709#1" arrivalPos="0.49"/>
    </person>
    <person id="gb239" depart="33418.58" departPos="random">
        <walk edges="-116715858 18887954#0" busStop="1.TA.92-20-E-j24-1.5.H.4"/> <!-- Silvaplana, Plazza dal Mastrel -->
        <ride from="18887954#0" to="1050853710" busStop="1063.TA.92-1-N-j24-1.89.H.29" lines="taxi"/> <!-- Surlej, Corvatschbahn -->
        <walk edges="1050853710 -1050853709#1" arrivalPos="0.09"/>
    </person>