<?xml version="1.0" encoding="UTF-8"?>

<!-- generated by Eclipse SUMO netedit 1.26.0
-->

<additional xmlns:xsi="http://www.w3.org/2001/XMLSchema-instance" xsi:noNamespaceSchemaLocation="http://sumo.dlr.de/xsd/additional_file.xsd">
    <!-- TAZs -->
    <taz id="taz_shopping_bregaglia_bondo" shape="10463.93,8873.02 10483.88,8860.06 10491.11,8870.00 10470.76,8882.34 10463.85,8872.64 10463.93,8873.02" color="red">
        <tazSource id="120839519#1" weight="1.00"/>
        <tazSink id="120839519#1" weight="1.00"/>
    </taz>
    <taz id="taz_shopping_bregaglia_castasegna" shape="7403.73,8291.71 7430.82,8298.97 7438.68,8279.00 7410.54,8271.28 7403.73,8292.16 7403.73,8291.71" color="red">
        <tazSource id="-1162538599#5" weight="1.00"/>
        <tazSink id="-1162538599#5" weight="1.00"/>
    </taz>
    <taz id="taz_shopping_bregaglia_maloja" shape="21104.86,15948.34 21090.38,15903.74 21113.51,15897.42 21129.16,15941.35 21103.69,15948.18 21104.86,15948.34" color="red">
        <tazSource id="-1068729371#2" weight="1.00"/>
        <tazSink id="-1068729371#2" weight="1.00"/>
        <tazSource id="-315159485#6" weight="1.00"/>
        <tazSink id="-315159485#6" weight="1.00"/>
    </taz>
    <taz id="taz_shopping_bregaglia_vicosoprano" shape="15484.29,10101.94 15502.38,10101.81 15502.25,10076.08 15485.51,10076.34 15484.54,10102.26 15484.29,10101.94" color="red">
        <tazSource id="1101989249" weight="1.00"/>
        <tazSink id="1101989249" weight="1.00"/>
    </taz>
    <taz id="taz_shopping_sils_engadin" shape="26451.24,19519.99 26444.11,19534.87 26435.61,19531.37 26441.74,19516.49 26451.36,19520.37 26451.24,19519.99" color="red">
        <tazSource id="-239035118#5" weight="1.00"/>
        <tazSink id="-239035118#5" weight="1.00"/>
    </taz>
    <taz id="taz_shopping_silvaplana" shape="28796.99,22510.26 28787.49,22487.00 28806.75,22481.37 28814.50,22506.13 28796.49,22510.38 28796.99,22510.26" color="red">
        <tazSource id="-116715858" weight="1.00"/>
        <tazSink id="-116715858" weight="1.00"/>
    </taz>
    <taz id="taz_shopping_st_moritz_center" shape="32034.33,26813.39 32040.74,26829.88 32029.61,26833.33 32024.89,26815.83 32034.43,26813.50 32034.33,26813.39" color="red">
        <tazSource id="-25412020#0" weight="1.00"/>
        <tazSink id="-25412020#0" weight="1.00"/>
    </taz>
    <taz id="taz_shopping_st_moritz_west" shape="31811.55,25914.04 31858.00,25848.98 31809.73,25814.48 31794.45,25854.58 31797.17,25916.46 31811.24,25914.19 31811.55,25914.04" color="red">
        <tazSource id="-89726026#3" weight="1.00"/>
        <tazSink id="-89726026#3" weight="1.00"/>
        <tazSource id="14014143#0" weight="1.00"/>
        <tazSink id="14014143#0" weight="1.00"/>
        <tazSource id="14014143#1" weight="1.00"/>
        <tazSink id="14014143#1" weight="1.00"/>
    </taz>
</additional>
