<routes xmlns:xsi="http://www.w3.org/2001/XMLSchema-instance" xsi:noNamespaceSchemaLocation="http://sumo.dlr.de/xsd/routes_file.xsd">
    <person id="d56" depart="28921.78" departPos="random">
        <walk edges="519913257#1" busStop="1.TA.92-4-Q-j24-1.7.R.13" /> 
        <ride from="519913257#1" to="-96461182#0" arrivalPos="7.50" lines="taxi" />
        <walk edges="-96461182#0 1472605488#1 1472605488#0 1201541125 52959697#0 52959697#1 52959697#2 -52959697#3 -56085325#0 -56085325#1 56085325#2 56085325#3 -56085325#4" arrivalPos="62.06" />
    </person>
    <person id="d128" depart="28979.52" departPos="random">
        <walk edges="519913265#1" busStop="vbs_St_Moritz_extra_cap" />
        <ride from="519913265#1" to="25303488#4" arrivalPos="38.05" lines="taxi" />
        <walk edges="25303488#4 1068735334 69347933#0 -69347933#1 -188727781#1 -188727781#0" arrivalPos="105.14" />
    </person>
    <person id="d92" depart="29122.82" departPos="random">
        <walk edges="519913263#1" busStop="1008.TA.92-1-N-j24-1.88.H.14" /> 
        <ride from="519913263#1" to="18887954#0" arrivalPos="6.62" lines="taxi" />
        <walk edges="18887954#0 -116507538#0" arrivalPos="0.67" />
    </person>
    <person id="d89" depart="29197.95" departPos="random">
        <walk edges="519913263#1" busStop="1008.TA.92-1-N-j24-1.88.H.14" /> 
        <ride from="519913263#1" to="-209788013" arrivalPos="516.88" lines="taxi" />
        <walk edges="-209788013 76091869#0" arrivalPos="23.98" />
    </person>
    <person id="d29" depart="29784.39" departPos="random">
        <walk edges="519913257#1" busStop="1.TA.92-4-Q-j24-1.7.R.13" /> 
        <ride from="519913257#1" to="430248865#1" arrivalPos="7.50" lines="taxi" />
        <walk edges="430248865#1 1069366697" arrivalPos="22.78" />
    </person>
    <person id="d136" depart="29903.27" departPos="random">
        <walk edges="519913261#1" busStop="154.TA.92-1-N-j24-1.77.H.0" /> 
        <ride from="519913261#1" to="740109140" arrivalPos="20.48" lines="taxi" />
        <walk edges="740109140 -188730896#6 188730896#5 188730896#4" arrivalPos="1.56" />
    </person>
    <person id="d66" depart="30056.12" departPos="random">
        <walk edges="519913261#1" busStop="154.TA.92-1-N-j24-1.77.H.0" /> 
        <ride from="519913261#1" to="56240189#0" arrivalPos="27.49" lines="taxi" />
        <walk edges="56240189#0 -188063062" arrivalPos="14.16" />
    </person>
    <person id="d145" depart="30205.95" departPos="random">
        <walk edges="519913257#1" busStop="1.TA.92-4-Q-j24-1.7.R.13" /> 
        <ride from="519913257#1" to="25303487#3" arrivalPos="46.08" lines="taxi" />
        <walk edges="25303487#3 -25303487#3" arrivalPos="18.64" />
    </person>
    <person id="d115" depart="30649.67" departPos="random">
        <walk edges="519913263#1" busStop="1008.TA.92-1-N-j24-1.88.H.14" /> 
        <ride from="519913263#1" to="-30957915" arrivalPos="9.76" lines="taxi" />
        <walk edges="-30957915 51814854 -89726026#0 -89726026#1" arrivalPos="27.61" />
    </person>
    <person id="d57" depart="30960.73" departPos="random">
        <walk edges="519913257#1" busStop="1.TA.92-4-Q-j24-1.7.R.13" /> 
        <ride from="519913257#1" to="-96461182#0" arrivalPos="7.50" lines="taxi" />
        <walk edges="-96461182#0" arrivalPos="21.47" />
    </person>
    <person id="d35" depart="31079.74" departPos="random">
        <walk edges="519913257#1" busStop="1.TA.92-4-Q-j24-1.7.R.13" /> 
        <ride from="519913257#1" to="-315159496#0" arrivalPos="2.10" lines="taxi" />
        <walk edges="-315159496#0 -70702075#5 -70702075#4 70702075#3 -70702075#1" arrivalPos="1.00" />
    </person>
    <person id="d5" depart="31307.60" departPos="random">
        <walk edges="519913263#1" busStop="1008.TA.92-1-N-j24-1.88.H.14" /> 
        <ride from="519913263#1" to="120829159" arrivalPos="10.00" lines="taxi" />
        <walk edges="120829159 1083356001 614559903 171771430 -171771449#3 171771449#2" arrivalPos="16.99" />
    </person>
    <person id="d141" depart="31854.41" departPos="random">
        <walk edges="519913265#1" busStop="vbs_St_Moritz_extra_cap" />
        <ride from="519913265#1" to="-170952322#1" arrivalPos="26.09" lines="taxi" />
        <walk edges="-170952322#1 170952322#0" arrivalPos="36.77" />
    </person>
    <person id="d153" depart="32072.04" departPos="random">
        <walk edges="519913263#1" busStop="1008.TA.92-1-N-j24-1.88.H.14" /> 
        <ride from="519913263#1" to="-30957907" arrivalPos="66.03" lines="taxi" />
        <walk edges="-30957907 26167898#0 26167898#1 -26167908#1 26167908#3 26167908#4 235361058#0 235361058#1" arrivalPos="62.03" />
    </person>
    <person id="d91" depart="32165.36" departPos="random">
        <walk edges="519913263#1" busStop="1008.TA.92-1-N-j24-1.88.H.14" /> 
        <ride from="519913263#1" to="185833040#1" arrivalPos="15.53" lines="taxi" />
        <walk edges="185833040#1 185833040#2 664380228#1 664380228#0" arrivalPos="33.80" />
    </person>
    <person id="d42" depart="32180.65" departPos="random">
        <walk edges="519913257#1" busStop="1.TA.92-4-Q-j24-1.7.R.13" /> 
        <ride from="519913257#1" to="1472605488#2" arrivalPos="18.43" lines="taxi" />
        <walk edges="1472605488#2" arrivalPos="7.56" />
    </person>
    <person id="d93" depart="32235.74" departPos="random">
        <walk edges="519913263#1" busStop="1008.TA.92-1-N-j24-1.88.H.14" /> 
        <ride from="519913263#1" to="-1050853709#0" arrivalPos="19.32" lines="taxi" />
        <walk edges="-1050853709#0" arrivalPos="3.03" />
    </person>
    <person id="d38" depart="32263.84" departPos="random">
        <walk edges="519913261#1" busStop="154.TA.92-1-N-j24-1.77.H.0" /> 
        <ride from="519913261#1" to="-96461182#0" arrivalPos="7.50" lines="taxi" />
        <walk edges="-96461182#0 96461182#1 -96461182#2 -66846274" arrivalPos="237.62" />
    </person>
    <person id="d135" depart="32308.99" departPos="random">
        <walk edges="519913257#1" busStop="1.TA.92-4-Q-j24-1.7.R.13" /> 
        <ride from="519913257#1" to="-268146940#6" arrivalPos="87.83" lines="taxi" />
        <walk edges="-268146940#6 268146940#5 -268146940#4 268146940#3 39830434#0 39830434#1 -39830434#2 -25366042#6" arrivalPos="46.41" />
    </person>
    <person id="d100" depart="32367.26" departPos="random">
        <walk edges="519913261#1" busStop="154.TA.92-1-N-j24-1.77.H.0" /> 
        <ride from="519913261#1" to="18887954#0" arrivalPos="6.62" lines="taxi" />
        <walk edges="18887954#0 116715858 -147218475#2" arrivalPos="19.40" />
    </person>
    <person id="d112" depart="32394.65" departPos="random">
        <walk edges="519913265#1" busStop="vbs_St_Moritz_extra_cap" />
        <ride from="519913265#1" to="-170940321#0" arrivalPos="37.32" lines="taxi" />
        <walk edges="-170940321#0 -175791806#1 175791806#0 -1158102646" arrivalPos="2.94" />
    </person>
    <person id="d143" depart="32421.41" departPos="random">
        <walk edges="519913263#1 519913263#0 -120840710 -903531446 -120840712#0 -47578286 1068735342#0 1068735342#1 -819942945#0 819942945#2 1068735337 -152520535 819942944#2 819942944#3 -819942944#4 -819945212 -1113054109 152331922#0 -152385711 819945213" arrivalPos="10.81" />
    </person>
    <person id="d46" depart="32473.54" departPos="random">
        <walk edges="519913261#1" busStop="154.TA.92-1-N-j24-1.77.H.0" /> 
        <ride from="519913261#1" to="209755663#3" arrivalPos="2.55" lines="taxi" />
        <walk edges="209755663#3 209755663#2 -209755663#0 1317098557 59637812#0 59637812#1 -59637812#2 -59637812#3 59637812#4 -59637812#5 59637812#7 -59637812#8 59637812#9 59637812#10" arrivalPos="41.15" />
    </person>
    <person id="d152" depart="32561.15" departPos="random">
        <walk edges="519913261#1" busStop="154.TA.92-1-N-j24-1.77.H.0" /> 
        <ride from="519913261#1" to="740109140" arrivalPos="20.48" lines="taxi" />
        <walk edges="740109140 -196520689#0" arrivalPos="127.56" />
    </person>
    <person id="d144" depart="32585.92" departPos="random">
        <walk edges="519913257#1" busStop="1.TA.92-4-Q-j24-1.7.R.13" /> 
        <ride from="519913257#1" to="25303487#3" arrivalPos="46.08" lines="taxi" />
        <walk edges="25303487#3 -25303487#3" arrivalPos="70.72" />
    </person>
    <person id="d24" depart="32987.11" departPos="random">
        <walk edges="519913265#1" busStop="vbs_St_Moritz_extra_cap" />
        <ride from="519913265#1" to="62065386" arrivalPos="7.50" lines="taxi" />
        <walk edges="62065386 120839520 -41157381 171771447#1" arrivalPos="4.60" />
    </person>
    <person id="d110" depart="33017.02" departPos="random">
        <walk edges="519913257#1" busStop="1.TA.92-4-Q-j24-1.7.R.13" /> 
        <ride from="519913257#1" to="-170940321#0" arrivalPos="37.32" lines="taxi" />
        <walk edges="-170940321#0" arrivalPos="53.92" />
    </person>
    <person id="d18" depart="33157.33" departPos="random">
        <walk edges="519913265#1" busStop="vbs_St_Moritz_extra_cap" />
        <ride from="519913265#1" to="633986854#1" arrivalPos="9.41" lines="taxi" />
        <walk edges="633986854#1 -1083273106" arrivalPos="9.15" />
    </person>
    <person id="d67" depart="33320.00" departPos="random">
        <walk edges="519913265#1" busStop="vbs_St_Moritz_extra_cap" />
        <ride from="519913265#1" to="209755663#3" arrivalPos="2.55" lines="taxi" />
        <walk edges="209755663#3 209755663#2 -209755663#0 1317098557" arrivalPos="3.58" />
    </person>
    <person id="d77" depart="33377.06" departPos="random">
        <walk edges="519913257#1" busStop="1.TA.92-4-Q-j24-1.7.R.13" /> 
        <ride from="519913257#1" to="1068735330#1" arrivalPos="7.04" lines="taxi" />
        <walk edges="1068735330#1" arrivalPos="4.32" />
    </person>
    <person id="d45" depart="33442.55" departPos="random">
        <walk edges="519913263#1" busStop="1008.TA.92-1-N-j24-1.88.H.14" /> 
        <ride from="519913263#1" to="-96461182#0" arrivalPos="7.50" lines="taxi" />
        <walk edges="-96461182#0 1472605488#1 1472605488#0 -150277078#5 150277078#4 -56195874#7 -56195874#6" arrivalPos="0.40" />
    </person>
    <person id="d102" depart="33553.28" departPos="random">
        <walk edges="519913263#1" busStop="1008.TA.92-1-N-j24-1.88.H.14" /> 
        <ride from="519913263#1" to="76091869#1" arrivalPos="12.69" lines="taxi" />
        <walk edges="76091869#1" arrivalPos="162.29" />
    </person>
    <person id="d3" depart="33648.60" departPos="random">
        <walk edges="519913263#1" busStop="1008.TA.92-1-N-j24-1.88.H.14" /> 
        <ride from="519913263#1" to="62065386" arrivalPos="7.50" lines="taxi" />
        <walk edges="62065386 120839520 -41157381 171771447#1 171771447#2 -171771447#3 890086160#0 890086160#1 -890086160#2" arrivalPos="3.74" />
    </person>
    <person id="d140" depart="33753.66" departPos="random">
        <walk edges="519913257#1" busStop="1.TA.92-4-Q-j24-1.7.R.13" /> 
        <ride from="519913257#1" to="-170940321#0" arrivalPos="37.32" lines="taxi" />
        <walk edges="-170940321#0 317053074" arrivalPos="16.37" />
    </person>
    <person id="d40" depart="33784.81" departPos="random">
        <walk edges="519913261#1" busStop="154.TA.92-1-N-j24-1.77.H.0" /> 
        <ride from="519913261#1" to="209755663#3" arrivalPos="2.55" lines="taxi" />
        <walk edges="209755663#3 209755663#2 -209755663#0 1317098557 -58413641 -150335026#4 150335026#3 150335026#2" arrivalPos="41.23" />
    </person>
    <person id="d52" depart="34028.84" departPos="random">
        <walk edges="519913263#1" busStop="1008.TA.92-1-N-j24-1.88.H.14" /> 
        <ride from="519913263#1" to="56240189#0" arrivalPos="27.49" lines="taxi" />
        <walk edges="56240189#0 1418170811 25418326#1" arrivalPos="19.61" />
    </person>
    <person id="d90" depart="34261.17" departPos="random">
        <walk edges="519913257#1" busStop="1.TA.92-4-Q-j24-1.7.R.13" /> 
        <ride from="519913257#1" to="18887954#0" arrivalPos="6.62" lines="taxi" />
        <walk edges="18887954#0 -18887954#1 -18887954#2 185833044#1 116576984#0 116576984#1" arrivalPos="37.40" />
    </person>
    <person id="d98" depart="34281.72" departPos="random">
        <walk edges="519913261#1" busStop="154.TA.92-1-N-j24-1.77.H.0" /> 
        <ride from="519913261#1" to="1068941219#7" arrivalPos="18.33" lines="taxi" />
        <walk edges="1068941219#7" arrivalPos="34.89" />
    </person>
    <person id="d34" depart="34296.51" departPos="random">
        <walk edges="519913265#1" busStop="vbs_St_Moritz_extra_cap" />
        <ride from="519913265#1" to="430248865#10" arrivalPos="19.03" lines="taxi" />
        <walk edges="430248865#10 430248865#9" arrivalPos="24.75" />
    </person>
    <person id="d41" depart="34442.72" departPos="random">
        <walk edges="519913257#1" busStop="1.TA.92-4-Q-j24-1.7.R.13" /> 
        <ride from="519913257#1" to="209755663#3" arrivalPos="2.55" lines="taxi" />
        <walk edges="209755663#3 209755663#2 -209755663#0 1317098557 59637812#0 59637812#1 -59637812#2 -59637812#3 59637812#4 -59637812#5 59637812#7 -59637812#8 59637812#9 -59637812#10 -1086010084 -1086010083 -175833044#1 175833044#0 175833041 175833047#0 -175833047#1 -175833047#2 -175833043 -426408073 198123925#0 198123925#1" arrivalPos="13.36" />
    </person>
    <person id="d21" depart="34645.72" departPos="random">
        <walk edges="519913263#1" busStop="1008.TA.92-1-N-j24-1.88.H.14" /> 
        <ride from="519913263#1" to="391661586" arrivalPos="62.32" lines="taxi" />
        <walk edges="391661586 128157724#0 128157724#1 -1162541061#0 1162541061#1 -1162541061#2 -1162541061#3" arrivalPos="6.80" />
    </person>
    <person id="d132" depart="35093.29" departPos="random">
        <walk edges="519913263#1" busStop="1008.TA.92-1-N-j24-1.88.H.14" /> 
        <ride from="519913263#1" to="25303488#4" arrivalPos="38.05" lines="taxi" />
        <walk edges="25303488#4" arrivalPos="215.97" />
    </person>
    <person id="d139" depart="35362.44" departPos="random">
        <walk edges="519913265#1" busStop="vbs_St_Moritz_extra_cap" />
        <ride from="519913265#1" to="740109140" arrivalPos="20.48" lines="taxi" />
        <walk edges="740109140 -188730894#0 -188730894#1 69347929 268154513#1 -191377555 191378082#0" arrivalPos="5.55" />
    </person>
    <person id="d86" depart="35367.72" departPos="random">
        <walk edges="519913257#1" busStop="1.TA.92-4-Q-j24-1.7.R.13" /> 
        <ride from="519913257#1" to="25418590#1" arrivalPos="2.00" lines="taxi" />
        <walk edges="25418590#1 -25418590#2 -25418590#4" arrivalPos="3.36" />
    </person>
    <person id="d7" depart="35410.45" departPos="random">
        <walk edges="519913257#1" busStop="1.TA.92-4-Q-j24-1.7.R.13" /> 
        <ride from="519913257#1" to="-633986854#1" arrivalPos="7.26" lines="taxi" />
        <walk edges="-633986854#1 1069366698 502426859#0 -502426859#1 -502426859#2 502426859#4 -502426859#5 -502426860#0 502426860#1" arrivalPos="13.14" />
    </person>
    <person id="d0" depart="35482.39" departPos="random">
        <walk edges="519913265#1" busStop="vbs_St_Moritz_extra_cap" />
        <ride from="519913265#1" to="430248865#10" arrivalPos="19.03" lines="taxi" />
        <walk edges="430248865#10 430248865#9 -430248865#8 430248865#7 1054486961#0 -1054486961#1 1054486961#2" arrivalPos="243.60" />
    </person>
    <person id="d69" depart="35531.80" departPos="random">
        <walk edges="519913265#1" busStop="vbs_St_Moritz_extra_cap" />
        <ride from="519913265#1" to="-96461182#0" arrivalPos="7.50" lines="taxi" />
        <walk edges="-96461182#0 96461182#1 -96461182#2 -66846274 14014133#2 14014133#3 -56240279#4" arrivalPos="5.15" />
    </person>
    <person id="d37" depart="35891.00" departPos="random">
        <walk edges="519913257#1" busStop="1.TA.92-4-Q-j24-1.7.R.13" /> 
        <ride from="519913257#1" to="208825826" arrivalPos="41.20" lines="taxi" />
        <walk edges="208825826 -209742059" arrivalPos="823.58" />
    </person>
    <person id="d180" depart="36088.60" departPos="random">
        <walk edges="-501346489#1 -501346489#2" busStop="16.TA.96-290-0-j24-1.26.H.1" /> 
        <ride from="-501346489#2" to="1068735330#1" arrivalPos="7.04" lines="taxi" />
        <walk edges="1068735330#1 -1068735330#1" arrivalPos="1.62" />
    </person>
    <person id="d347" depart="36130.11" departPos="random">
        <walk edges="-25303488#3 -25303488#4" busStop="1286.TA.92-2-L-j24-1.22.R.4" /> 
        <ride from="-25303488#4" to="-1113164891" arrivalPos="19.64" lines="taxi" />
        <walk edges="-1113164891 1004933332#1" arrivalPos="13.19" />
    </person>
    <person id="d290" depart="36149.63" departPos="random">
        <walk edges="116077721#3 -116077721#3 -31061889#4 -31061889#3 31061889#2 31061889#0 187198083#7" busStop="1.TA.92-20-E-j24-1.5.H.3" /> 
        <ride from="187198083#7" to="30957916#1" arrivalPos="29.75" lines="taxi" />
        <walk edges="30957916#1 -96461188 30957932#0 -30957932#1 30957932#2 -30957932#3 30957932#4 -30957932#5" arrivalPos="45.82" />
    </person>
    <person id="d97" depart="36257.31" departPos="random">
        <walk edges="519913265#1" busStop="vbs_St_Moritz_extra_cap" />
        <ride from="519913265#1" to="30957916#1" arrivalPos="29.75" lines="taxi" />
        <walk edges="30957916#1" arrivalPos="27.31" />
    </person>
    <person id="d323" depart="36382.67" departPos="random">
        <walk edges="89727907 -1219872249#1 1219872249#0 1219872250 -30957907" busStop="1008.TA.92-1-N-j24-1.88.H.25" /> 
        <ride from="-30957907" to="-894905824" arrivalPos="13.28" lines="taxi" />
        <walk edges="-894905824 -1068735318#0" arrivalPos="12.17" />
    </person>
    <person id="d164" depart="36741.96" departPos="random">
        <walk edges="222975197#2 1162541061#4 1162541061#3 -1162541061#2 1162541061#1 1162541061#0 128157724#1 128157724#0 391661586" busStop="14.TA.96-290-0-j24-1.25.H.12" /> 
        <ride from="391661586" to="502426855#1" arrivalPos="23.27" lines="taxi" />
        <walk edges="502426855#1 -502426855#2 120840215 391653982#0 -391653982#1 -391653982#2" arrivalPos="236.25" />
    </person>
    <person id="d267" depart="36777.22" departPos="random">
        <walk edges="116507538#0 18887954#0" busStop="1.TA.92-20-E-j24-1.5.H.4" /> 
        <ride from="18887954#0" to="-69218976#0" arrivalPos="93.33" lines="taxi" />
        <walk edges="-69218976#0 -1441870936#7 1441870936#6 -1441870936#5" arrivalPos="15.46" />
    </person>
    <person id="d147" depart="36834.07" departPos="random">
        <walk edges="519913265#1" busStop="vbs_St_Moritz_extra_cap" />
        <ride from="519913265#1" to="740109140" arrivalPos="20.48" lines="taxi" />
        <walk edges="740109140 -196520689#0" arrivalPos="61.98" />
    </person>
    <person id="d59" depart="36840.52" departPos="random">
        <walk edges="519913257#1" busStop="1.TA.92-4-Q-j24-1.7.R.13" /> 
        <ride from="519913257#1" to="209755663#3" arrivalPos="2.55" lines="taxi" />
        <walk edges="209755663#3 209755663#2 -209755663#0 1317098557 -58413641 -150335026#4 150335026#3 -150335026#2 150335026#1 150335026#0" arrivalPos="19.87" />
    </person>
    <person id="d23" depart="36850.88" departPos="random">
        <walk edges="519913261#1" busStop="154.TA.92-1-N-j24-1.77.H.0" /> 
        <ride from="519913261#1" to="315159496#1" arrivalPos="7.50" lines="taxi" />
        <walk edges="315159496#1 315159496#2 315159496#3 -1136215938 315159494#1 315159494#2 -501346488#0 -501346488#1" arrivalPos="19.65" />
    </person>
    <person id="d161" depart="36873.90" departPos="random">
        <walk edges="-1162538599#1 365973802" busStop="19.TA.96-290-0-j24-1.32.H.33" /> 
        <ride from="365973802" to="-977972910" arrivalPos="24.86" lines="taxi" />
        <walk edges="-977972910 -170952349#1 170952349#0 -315159490 -315159487#7 315159487#6 -315159487#5 315159487#4 -315159487#3 315159487#2 -70696594#0" arrivalPos="19.81" />
    </person>
    <person id="d261" depart="37080.92" departPos="random">
        <walk edges="150277078#5 -150277078#5 -1472605488#0 1472605488#1 1472605488#2" busStop="1136.TA.92-10-J-j24-1.22.R.6" /> 
        <ride from="1472605488#2" to="-819942944#4" arrivalPos="39.13" lines="taxi" />
        <walk edges="-819942944#4 819945211 -1467922383 819945209 25303490 1068735336#0 -1068735336#1" arrivalPos="19.92" />
    </person>
    <person id="d333" depart="37119.15" departPos="random">
        <walk edges="519913257#0 519913257#1" busStop="1.TA.92-4-Q-j24-1.7.R.13" /> 
        <ride from="519913257#1" to="1068735330#1" arrivalPos="7.04" lines="taxi" />
        <walk edges="1068735330#1 30952483#0 -30952483#1 30952490#0" arrivalPos="1.81" />
    </person>
    <person id="d341" depart="37169.09" departPos="random">
        <walk edges="-219034871#1 219034871#1 219034871#0 -170952324#5 170940321#1 170940321#0" busStop="1008.TA.92-1-N-j24-1.88.H.22" /> 
        <ride from="170940321#0" to="519913257#1" arrivalPos="15.00" lines="taxi" />
        <walk edges="519913257#1 519913257#0 916468197 72562096#0 89724876#3 916015460#1 916015460#0 1189801663 -268776830#1 268776830#0 888359128#3 14014151 -1127470773 -232471144#0 -232471144#1 232471144#2 -1318101191#1 -1318101192 189023055#0 -189023055#1 -189023056#0 189023056#1" arrivalPos="92.19" />
    </person>
    <person id="d337" depart="37523.81" departPos="random">
        <walk edges="152516783#0 152516783#1 152516783#2 152516783#3 152516783#4 25412020#0 25412019" busStop="262.TA.92-10-J-j24-1.4.H.10" /> 
        <ride from="25412019" to="-30957907" arrivalPos="66.03" lines="taxi" />
        <walk edges="-30957907 26167898#0 26167898#1 26167908#1" arrivalPos="1.34" />
    </person>
    <person id="d62" depart="37574.78" departPos="random">
        <walk edges="519913265#1" busStop="vbs_St_Moritz_extra_cap" />
        <ride from="519913265#1" to="209755663#3" arrivalPos="2.55" lines="taxi" />
        <walk edges="209755663#3 209755663#2 -209755663#0 1317098557" arrivalPos="0.18" />
    </person>
    <person id="d282" depart="37655.17" departPos="random">
        <walk edges="116077719#0 116077721#0 187198083#0" busStop="1.TA.92-20-E-j24-1.5.H.0" /> 
        <ride from="187198083#0" to="1068735330#1" arrivalPos="7.04" lines="taxi" />
        <walk edges="1068735330#1 1068735330#0 1068735329#2 -1068735329#0" arrivalPos="12.59" />
    </person>
    <person id="d107" depart="37694.75" departPos="random">
        <walk edges="519913261#1" busStop="154.TA.92-1-N-j24-1.77.H.0" /> 
        <ride from="519913261#1" to="76091869#1" arrivalPos="12.69" lines="taxi" />
        <walk edges="76091869#1" arrivalPos="294.05" />
    </person>
    <person id="d285" depart="37734.61" departPos="random">
        <walk edges="30957933 -30957932#3 30957932#2 -30957932#1 30957932#0 -96461188 30957916#1" busStop="1008.TA.92-1-N-j24-1.88.H.28" /> 
        <ride from="30957916#1" to="1068735330#1" arrivalPos="7.04" lines="taxi" />
        <walk edges="1068735330#1 30952483#0 -30952483#1 30952490#0 -30952523#0 -30952523#1 30952496#0" arrivalPos="16.94" />
    </person>
    <person id="d73" depart="37806.18" departPos="random">
        <walk edges="519913265#1" busStop="vbs_St_Moritz_extra_cap" />
        <ride from="519913265#1" to="1068735330#7" arrivalPos="7.50" lines="taxi" />
        <walk edges="1068735330#7 -1068735330#5" arrivalPos="0.01" />
    </person>
    <person id="d191" depart="37810.52" departPos="random">
        <walk edges="-502426859#2 502426859#2 -502426859#1 502426859#0 1069366698 -633986854#1" busStop="14.TA.96-290-0-j24-1.25.H.7" /> 
        <ride from="-633986854#1" to="18887954#0" arrivalPos="6.62" lines="taxi" />
        <walk edges="18887954#0 -18887954#1 -18887954#2 -185833044#1" arrivalPos="2.94" />
    </person>
    <person id="d345" depart="37816.96" departPos="random">
        <walk edges="239178470#0 -170952324#5 170940321#1 170940321#0" busStop="1008.TA.92-1-N-j24-1.88.H.22" /> 
        <ride from="170940321#0" to="519913265#1" arrivalPos="10.00" lines="taxi" />
        <walk edges="519913265#1 519913265#0 903531446" arrivalPos="21.46" />
    </person>
    <person id="d170" depart="37828.28" departPos="random">
        <walk edges="257424360 -87104682 -70703176 1136143576 -315159485#5 -315159485#4 315159485#3 -315159485#2 -315159485#1 315159485#0 977972909" busStop="36.TA.96-290-0-j24-1.27.R.12" /> 
        <ride from="977972909" to="209755663#3" arrivalPos="2.55" lines="taxi" />
        <walk edges="209755663#3 209755663#2 -209755663#0 1317098557" arrivalPos="2.06" />
    </person>
    <person id="d111" depart="37844.76" departPos="random">
        <walk edges="519913257#1" busStop="1.TA.92-4-Q-j24-1.7.R.13" /> 
        <ride from="519913257#1" to="-30952515#0" arrivalPos="6.12" lines="taxi" />
        <walk edges="-30952515#0 -30952515#1 1068735331 30984018#0 -30984018#1 30984018#2" arrivalPos="3.54" />
    </person>
    <person id="d78" depart="37954.00" departPos="random">
        <walk edges="519913263#1" busStop="1008.TA.92-1-N-j24-1.88.H.14" /> 
        <ride from="519913263#1" to="30957916#1" arrivalPos="29.75" lines="taxi" />
        <walk edges="30957916#1 -96461188 30957932#0 -30957932#1 30957932#2" arrivalPos="7.56" />
    </person>
    <person id="d95" depart="38048.20" departPos="random">
        <walk edges="519913265#1" busStop="vbs_St_Moritz_extra_cap" />
        <ride from="519913265#1" to="25418590#1" arrivalPos="2.00" lines="taxi" />
        <walk edges="25418590#1 -25418590#2 25418590#4 -25418590#5 25418590#6 -25418590#7 -25418590#8" arrivalPos="2.93" />
    </person>
    <person id="d195" depart="38134.27" departPos="random">
        <walk edges="391653990#1 391653990#0 -1036672004#1 1036672004#0 -391653985#0 -391653985#1 -1036672006#1 -1036672006#0 890169723#2 -890169723#1 -890169723#0 890169725#1" busStop="48.TA.96-290-0-j24-1.17.R.9" /> 
        <ride from="890169725#1" to="1113136564#0" arrivalPos="4.93" lines="taxi" />
        <walk edges="1113136564#0 -1113136564#1 -120840705#1 120840705#2 -120840705#3 -120840705#4 120840705#5" arrivalPos="22.97" />
    </person>
    <person id="d129" depart="38250.09" departPos="random">
        <walk edges="519913263#1" busStop="1008.TA.92-1-N-j24-1.88.H.14" /> 
        <ride from="519913263#1" to="-25303487#4" arrivalPos="17.78" lines="taxi" />
        <walk edges="-25303487#4 154770319#0 1113452968" arrivalPos="16.77" />
    </person>
    <person id="d283" depart="38303.82" departPos="random">
        <walk edges="30952535#2 -30952527#0 -30952527#1 -72562019#1 72562019#0 30952515#0" busStop="459.TA.92-10-J-j24-1.71.H.20" /> 
        <ride from="30952515#0" to="1086005529" arrivalPos="102.22" lines="taxi" />
        <walk edges="1086005529 14014136#0 1086005528 -1086005527#0 31061886#0 -31061886#1 31061886#2 -31061886#3 31061886#4" arrivalPos="2.31" />
    </person>
    <person id="d256" depart="38403.47" departPos="random">
        <walk edges="256959702#2 -256959702#1 -256959702#0 -1068735318#2 -1068735318#1 1068735318#0 -894905824" busStop="459.TA.92-10-J-j24-1.71.H.29" /> 
        <ride from="-894905824" to="612250570#5" arrivalPos="377.22" lines="taxi" />
        <walk edges="612250570#5 -612250570#4" arrivalPos="46.12" />
    </person>
    <person id="d184" depart="38505.82" departPos="random">
        <walk edges="-31060929#1 31060929#0 1169006585 1083276373 -502426855#2 502426855#1" busStop="36.TA.96-290-0-j24-1.27.R.5" /> 
        <ride from="502426855#1" to="30957916#1" arrivalPos="29.75" lines="taxi" />
        <walk edges="30957916#1 -96461188 30957932#0 30957932#1" arrivalPos="72.25" />
    </person>
    <person id="d330" depart="38643.76" departPos="random">
        <walk edges="1115020156 1005170350 -152517715#3" busStop="1008.TA.92-1-N-j24-1.88.H.18" /> 
        <ride from="-152517715#3" to="25418591#5" arrivalPos="15.99" lines="taxi" />
        <walk edges="25418591#5 25418591#4 25418591#3 25418591#2" arrivalPos="5.98" />
    </person>
    <person id="d278" depart="39004.63" departPos="random">
        <walk edges="182095936#1 1136239035#0 1136239035#1 -209788015 1219863759 1219863760#1 664380228#1 185833040#2 185833040#1" busStop="1.TA.92-20-E-j24-1.5.H.5" /> 
        <ride from="185833040#1" to="-96461182#0" arrivalPos="7.50" lines="taxi" />
        <walk edges="-96461182#0 1472605488#1 1472605488#0 -150277078#5 -150277078#4" arrivalPos="12.59" />
    </person>
    <person id="d104" depart="39012.73" departPos="random">
        <walk edges="519913261#1" busStop="154.TA.92-1-N-j24-1.77.H.0" /> 
        <ride from="519913261#1" to="-187633169#3" arrivalPos="7.50" lines="taxi" />
        <walk edges="-187633169#3 187633169#3" arrivalPos="12.80" />
    </person>
    <person id="d279" depart="39090.36" departPos="random">
        <walk edges="31061886#0 1086005527#0 1086005528 14014136#0 1086005529" busStop="1008.TA.92-1-N-j24-1.88.H.26" /> 
        <ride from="1086005529" to="209755663#3" arrivalPos="2.55" lines="taxi" />
        <walk edges="209755663#3 209755663#2 -209755663#0 1317098557 59637812#0 59637812#1 -59637812#2 -59637812#3 59637812#4 -59637812#5 59637812#7 -59637812#8 59637812#9 -59637812#10 -1086010084 -1086010083 -175833044#1 175833044#0 175833041 241932762#4 241932762#3 -241932762#2 241932762#1 241932762#0 -426408082#1 426408082#0 76129128#0" arrivalPos="30.60" />
    </person>
    <person id="d188" depart="39126.75" departPos="random">
        <walk edges="-614457355 375822918#0 1187206776 429497063#0 429497063#1" busStop="1.TA.96-290-3-j24-1.1.H.3" /> 
        <ride from="429497063#1" to="187198083#7" arrivalPos="10.67" lines="taxi" />
        <walk edges="187198083#7 31061889#0 31061889#2 -31061889#3 -31061889#4 186141915#0 -186141915#1 -1430507283" arrivalPos="13.95" />
    </person>
    <person id="d299" depart="39184.75" departPos="random">
        <walk edges="30952490#0 -30952483#1 30952483#0 1068735330#1" busStop="1136.TA.92-10-J-j24-1.22.R.13" /> 