<routes xmlns:xsi="http://www.w3.org/2001/XMLSchema-instance" xsi:noNamespaceSchemaLocation="http://sumo.dlr.de/xsd/routes_file.xsd">
    <person id="56" depart="28921.78" departPos="random">
        <walk edges="519913257#1 519913257#0 -904728442 519913261#0 519913261#1" busStop="154.TA.92-1-N-j24-1.77.H.0" /> 
        <ride busStop="1008.TA.92-1-N-j24-1.88.H.15" intended="721.TA.92-1-N-j24-1.81.H.0" depart="29090.00" /> 
        <walk edges="819942944#3 -819942944#4 819945211 -1467922383 819945210#0 41595601#0 -41595601#2 41595601#3 41595601#4 -41595601#5 152337236#1 25412019" busStop="262.TA.92-10-J-j24-1.4.H.10" /> 
        <ride busStop="459.TA.92-10-J-j24-1.71.H.27" intended="61.TA.92-2-L-j24-1.2.H.0" depart="29390.00" /> 
        <ride busStop="459.TA.92-10-J-j24-1.71.H.28" intended="29.TA.96-290-0-j24-1.10.H.0" depart="30410.00" /> 
        <walk edges="-96461182#0 1472605488#1 1472605488#0 1201541125 52959697#0 52959697#1 52959697#2 -52959697#3 56085325#0 -56085325#1 56085325#2 56085325#3 -56085325#4" arrivalPos="62.06" />
    </person>
    <person id="128" depart="28979.52" departPos="random">
        <walk edges="519913265#1 519913265#0 120840710 897592613 519913261#0 519913261#1" busStop="154.TA.92-1-N-j24-1.77.H.0" /> 
        <ride busStop="1008.TA.92-1-N-j24-1.88.H.15" intended="721.TA.92-1-N-j24-1.81.H.0" depart="29090.00" /> 
        <walk edges="819942944#3 -819942944#4 819945211 -1467922383 819945210#0 41595601#0 -41595601#2 41595601#3 41595601#4 -41595601#5 152337236#1 25412019" busStop="262.TA.92-10-J-j24-1.4.H.10" /> 
        <ride busStop="1034.TA.92-2-L-j24-1.15.H.13" intended="61.TA.92-2-L-j24-1.2.H.0" depart="29390.00" /> 
        <walk edges="25303488#4 1068735334 69347933#0 -69347933#1 -188727781#1 -188727781#0" arrivalPos="105.14" />
    </person>
    <person id="92" depart="29122.82" departPos="random">
        <walk edges="519913263#1" busStop="1008.TA.92-1-N-j24-1.88.H.14" /> 
        <ride busStop="1008.TA.92-1-N-j24-1.88.H.26" intended="29.TA.96-290-0-j24-1.10.H.0" depart="29690.00" /> 
        <walk edges="1086005529 14014136#0 1086005528 -1086005527#0 -147218475#0 147218475#2 -116715858 -116507538#0" arrivalPos="0.67" />
    </person>
    <person id="89" depart="29197.95" departPos="random">
        <walk edges="519913263#1" busStop="1008.TA.92-1-N-j24-1.88.H.14" /> 
        <ride busStop="459.TA.92-10-J-j24-1.71.H.27" intended="29.TA.96-290-0-j24-1.10.H.0" depart="29690.00" /> 
        <walk edges="-209788013 76091869#0" arrivalPos="23.98" />
    </person>
    <person id="29" depart="29784.39" departPos="random">
        <walk edges="519913257#1 519913257#0 -904728442 519913261#0 519913261#1" busStop="154.TA.92-1-N-j24-1.77.H.0" /> 
        <ride busStop="1008.TA.92-1-N-j24-1.88.H.15" intended="1240.TA.92-9-H-j24-1.12.R.0" depart="30290.00" /> 
        <ride busStop="1008.TA.92-1-N-j24-1.88.H.25" intended="667.TA.92-6-I-j24-1.3.H.0" depart="30530.00" /> 
        <ride busStop="1008.TA.92-1-N-j24-1.88.H.26" intended="1153.TA.92-1-N-j24-1.89.H.0" depart="31610.00" /> 
        <ride busStop="459.TA.92-10-J-j24-1.71.H.34" intended="980.TA.92-2-L-j24-1.15.H.0" depart="31970.00" /> 
        <walk edges="894576903 -170952349#1 170952349#0 1068729371#2 -1068729371#1 1068729371#0 315159485#6 -315159485#5 -315159485#4 315159485#3 -315159485#2 -315159485#1 315159485#0 -977972909 -501346489#2" busStop="16.TA.96-290-0-j24-1.26.H.1" /> 
        <ride busStop="16.TA.96-290-0-j24-1.26.H.6" intended="21.TA.96-290-0-j24-1.10.H.0" depart="35270.00" /> 
        <walk edges="-430248865#1 1069366697" arrivalPos="22.78" />
    </person>
    <person id="136" depart="29903.27" departPos="random">
        <walk edges="519913261#1" busStop="154.TA.92-1-N-j24-1.77.H.0" /> 
        <ride busStop="1008.TA.92-1-N-j24-1.88.H.15" intended="1240.TA.92-9-H-j24-1.12.R.0" depart="30290.00" /> 
        <walk edges="819942944#3 -819942944#4 819945211 -1467922383 819945209 25303490 1068735336#0 -1068735336#1 -1068735336#2 1068735336#3 -1115020159 1115020158" busStop="1034.TA.92-2-L-j24-1.15.H.12" /> 
        <ride busStop="1034.TA.92-2-L-j24-1.15.H.13" intended="980.TA.92-2-L-j24-1.15.H.0" depart="31250.00" /> 
        <walk edges="25303488#4 1068735334 69347933#0 -69347933#1 -188730896#0 -188730896#1 -188730896#2 188730896#3 188730896#4" arrivalPos="1.56" />
    </person>
    <person id="66" depart="30056.12" departPos="random">
        <walk edges="519913261#1" busStop="154.TA.92-1-N-j24-1.77.H.0" /> 
        <ride busStop="1008.TA.92-1-N-j24-1.88.H.15" intended="1240.TA.92-9-H-j24-1.12.R.0" depart="30290.00" /> 
        <ride busStop="1008.TA.92-1-N-j24-1.88.H.25" intended="667.TA.92-6-I-j24-1.3.H.0" depart="30530.00" /> 
        <ride busStop="1008.TA.92-1-N-j24-1.88.H.26" intended="1153.TA.92-1-N-j24-1.89.H.0" depart="31610.00" /> 
        <ride busStop="459.TA.92-10-J-j24-1.71.H.31" intended="980.TA.92-2-L-j24-1.15.H.0" depart="31970.00" /> 
        <walk edges="-56240189#0 -188063062" arrivalPos="14.16" />
    </person>
    <person id="145" depart="30205.95" departPos="random">
        <walk edges="519913257#1 519913257#0 -904728442 519913261#0 519913261#1" busStop="154.TA.92-1-N-j24-1.77.H.0" /> 
        <ride busStop="1008.TA.92-1-N-j24-1.88.H.15" intended="1240.TA.92-9-H-j24-1.12.R.0" depart="30290.00" /> 
        <ride busStop="1008.TA.92-1-N-j24-1.88.H.19" intended="667.TA.92-6-I-j24-1.3.H.0" depart="30530.00" /> 
        <walk edges="-25303487#4 -25303487#3" arrivalPos="18.64" />
    </person>
    <person id="115" depart="30649.67" departPos="random">
        <walk edges="519913263#1" busStop="1008.TA.92-1-N-j24-1.88.H.14" /> 
        <ride busStop="114.TA.92-9-H-j24-1.10.H.3" intended="205.TA.92-9-H-j24-1.10.H.0" depart="30890.00" /> 
        <walk edges="-89726026#3 89726026#2 -89726026#1" arrivalPos="27.61" />
    </person>
    <person id="57" depart="30960.73" departPos="random">
        <walk edges="519913257#1" busStop="1.TA.92-4-Q-j24-1.7.R.13" /> 
        <ride busStop="1008.TA.92-1-N-j24-1.88.H.25" intended="198.TA.96-260-1-j24-1.12.R.0" depart="31070.00" /> 
        <ride busStop="1008.TA.92-1-N-j24-1.88.H.26" intended="1153.TA.92-1-N-j24-1.89.H.0" depart="31610.00" /> 
        <ride busStop="459.TA.92-10-J-j24-1.71.H.28" intended="980.TA.92-2-L-j24-1.15.H.0" depart="31970.00" /> 
        <walk edges="-96461182#0" arrivalPos="21.47" />
    </person>
    <person id="35" depart="31079.74" departPos="random">
        <walk edges="519913257#1 519913257#0 916468197 916468198#1 916468198#2 89724876#5 1189801664 1189801665 916468195#0 916468196#0 631302139#4 -631302139#3 631302139#2 -631302139#1 -631302139#0 120840705#7 -120840705#6 120840705#5 -120840705#4 -120840705#3 120840705#2 120840705#1 -1113136564#1 -1113136564#0 89726026#3 89726026#2 -89726026#1 -89726026#0 51814854 30957915" busStop="1008.TA.92-1-N-j24-1.88.H.20" /> 
        <ride busStop="2386.TA.92-1-N-j24-1.93.R.0" intended="679.TA.92-6-I-j24-1.3.H.0" depart="32510.00" /> 
        <walk edges="1068735330#7 -1068735330#5 1068735330#4 -1068735330#2 -1068735330#1" busStop="459.TA.92-10-J-j24-1.71.H.21" /> 
        <ride busStop="459.TA.92-10-J-j24-1.71.H.33" intended="3.TA.96-290-0-j24-1.2.H.0" depart="33050.00" /> 
        <walk edges="315159496#1 315159496#0 -70702075#5 -70702075#4 70702075#3 -70702075#1" arrivalPos="1.00" />
    </person>
    <person id="5" depart="31307.60" departPos="random">
        <walk edges="519913263#1 519913263#0 -120840710 -903531446 -120840712#0 -47578286 1068735342#0 1068735342#1 -819942945#0 819942945#2 1068735337 -152520535 819942944#2 819942944#3 -819942944#4 819945211 -1467922383 819945209 -152517443#2 -152517443#1" busStop="1008.TA.92-1-N-j24-1.88.H.17" /> 
        <ride busStop="2386.TA.92-1-N-j24-1.93.R.0" intended="679.TA.92-6-I-j24-1.3.H.0" depart="32330.00" /> 
        <walk edges="1068735330#7 -1068735330#5 1068735330#4 -1068735330#2 -1068735330#1" busStop="459.TA.92-10-J-j24-1.71.H.21" /> 
        <ride busStop="459.TA.92-10-J-j24-1.71.H.34" intended="3.TA.96-290-0-j24-1.2.H.0" depart="33050.00" /> 
        <walk edges="894576903 -170952349#1 170952349#0 1068729371#2 -1068729371#1 1068729371#0 315159485#6 -315159485#5 -315159485#4 315159485#3 -315159485#2 -315159485#1 315159485#0 -977972909 -501346489#2" busStop="16.TA.96-290-0-j24-1.26.H.1" /> 
        <ride busStop="14.TA.96-290-0-j24-1.25.H.11" intended="21.TA.96-290-0-j24-1.10.H.0" depart="35270.00" /> 
        <walk edges="120829159 -1083356000 520821161#0 520821161#1 171771430 -171771449#3 171771449#2" arrivalPos="16.99" />
    </person>
    <person id="141" depart="31854.41" departPos="random">
        <walk edges="519913265#1 519913265#0 120840710 897592613 519913261#0 519913261#1" busStop="154.TA.92-1-N-j24-1.77.H.0" /> 
        <ride busStop="1008.TA.92-1-N-j24-1.88.H.15" intended="1459.TA.92-9-H-j24-1.12.R.0" depart="32090.00" /> 
        <ride busStop="1008.TA.92-1-N-j24-1.88.H.22" intended="679.TA.92-6-I-j24-1.3.H.0" depart="32330.00" /> 
        <walk edges="170940321#0 -170940321#1 170952322#0" arrivalPos="36.77" />
    </person>
    <person id="153" depart="32072.04" departPos="random">
        <walk edges="519913263#1" busStop="1008.TA.92-1-N-j24-1.88.H.14" /> 
        <ride busStop="459.TA.92-10-J-j24-1.71.H.20" intended="3.TA.96-290-0-j24-1.2.H.0" depart="32690.00" /> 
        <walk edges="30952515#0 -30952515#0" busStop="2386.TA.92-1-N-j24-1.93.R.1" /> 
        <ride busStop="1008.TA.92-1-N-j24-1.88.H.25" intended="2834.TA.92-6-I-j24-1.22.R.0" depart="33290.00" /> 
        <walk edges="-30957907 26167898#0 26167898#1 -26167908#1 26167908#3 26167908#4 235361058#0 235361058#1" arrivalPos="62.03" />
    </person>
    <person id="91" depart="32165.36" departPos="random">
        <walk edges="519913263#1" busStop="1008.TA.92-1-N-j24-1.88.H.14" /> 
        <ride busStop="1008.TA.92-1-N-j24-1.88.H.26" intended="3.TA.96-290-0-j24-1.2.H.0" depart="32690.00" /> 
        <walk edges="1086005529 72561993#0 -72561993#1 664380228#0" arrivalPos="33.80" />
    </person>
    <person id="42" depart="32180.65" departPos="random">
        <walk edges="519913257#1 519913257#0 -904728442 -897592613 519913263#0 519913263#1" busStop="1008.TA.92-1-N-j24-1.88.H.14" /> 
        <ride busStop="459.TA.92-10-J-j24-1.71.H.28" intended="3.TA.96-290-0-j24-1.2.H.0" depart="32690.00" /> 
        <walk edges="-96461182#0 1472605488#2" arrivalPos="7.56" />
    </person>
    <person id="93" depart="32235.74" departPos="random">
        <walk edges="519913263#1" busStop="1008.TA.92-1-N-j24-1.88.H.14" /> 
        <ride busStop="1008.TA.92-1-N-j24-1.88.H.26" intended="3.TA.96-290-0-j24-1.2.H.0" depart="32690.00" /> 
        <ride busStop="1063.TA.92-1-N-j24-1.89.H.29" intended="1226.TA.92-1-N-j24-1.89.H.0" depart="33710.00" /> 
        <walk edges="1050853710 -1050853709#0" arrivalPos="3.03" />
    </person>
    <person id="38" depart="32263.84" departPos="random">
        <walk edges="519913261#1 519913261#0 -897592613 519913263#0 519913263#1" busStop="1008.TA.92-1-N-j24-1.88.H.14" /> 
        <ride busStop="459.TA.92-10-J-j24-1.71.H.28" intended="3.TA.96-290-0-j24-1.2.H.0" depart="32690.00" /> 
        <walk edges="-96461182#0 96461182#1 -96461182#2 -66846274" arrivalPos="237.62" />
    </person>
    <person id="135" depart="32308.99" departPos="random">
        <walk edges="519913257#1 519913257#0 -904728442 -897592613 519913263#0 519913263#1" busStop="1008.TA.92-1-N-j24-1.88.H.14" /> 
        <ride busStop="1008.TA.92-1-N-j24-1.88.H.15" intended="1226.TA.92-1-N-j24-1.89.H.0" depart="32690.00" /> 
        <walk edges="819942944#3 -819942944#4 819945211 -1467922383 819945210#0 41595601#0 -41595601#2 41595601#3 41595601#4 -41595601#5 -1005052428#1 -1005052428#2 819942942#0 152390930#1 -1005048061#2 1005048061#1 -1005048061#0 1005048062#1 -578147406 -268146940#2 39830434#0 39830434#1 -39830434#2 -25366042#6" arrivalPos="46.41" />
    </person>
    <person id="100" depart="32367.26" departPos="random">
        <walk edges="519913261#1 519913261#0 -897592613 519913263#0 519913263#1" busStop="1008.TA.92-1-N-j24-1.88.H.14" /> 
        <ride busStop="1008.TA.92-1-N-j24-1.88.H.26" intended="3.TA.96-290-0-j24-1.2.H.0" depart="32690.00" /> 
        <walk edges="1086005529 14014136#0 1086005528 -1086005527#0 -147218475#0 -147218475#2" arrivalPos="19.40" />
    </person>
    <person id="112" depart="32394.65" departPos="random">
        <walk edges="519913265#1 519913265#0 120840710 519913263#0 519913263#1" busStop="1008.TA.92-1-N-j24-1.88.H.14" /> 
        <ride busStop="1679.TA.92-1-N-j24-1.90.R.1" intended="712.TA.92-9-H-j24-1.10.H.0" depart="32690.00" /> 
        <walk edges="-170940321#0 -175791806#1 175791806#0 -1158102646" arrivalPos="2.94" />
    </person>
    <person id="143" depart="32421.41" departPos="random">
        <walk edges="519913263#1" busStop="1008.TA.92-1-N-j24-1.88.H.14" /> 
        <ride busStop="1008.TA.92-1-N-j24-1.88.H.15" intended="1226.TA.92-1-N-j24-1.89.H.0" depart="32690.00" /> 
        <walk edges="819942944#3 -819942944#4 -819945212 -1113054109 152331922#0 -152385711 819945213" arrivalPos="10.81" />
    </person>
    <person id="46" depart="32473.54" departPos="random">
        <walk edges="519913261#1 519913261#0 -897592613 519913263#0 519913263#1" busStop="1008.TA.92-1-N-j24-1.88.H.14" /> 
        <ride busStop="459.TA.92-10-J-j24-1.71.H.29" intended="3.TA.96-290-0-j24-1.2.H.0" depart="32690.00" /> 
        <walk edges="-894905824 -256959704#0 -209755663#4 209755663#3 209755663#2 -209755663#0 1317098557 59637812#0 59637812#1 -59637812#2 -59637812#3 59637812#4 -59637812#5 59637812#7 -59637812#8 59637812#9 59637812#10" arrivalPos="41.15" />
    </person>
    <person id="152" depart="32561.15" departPos="random">
        <walk edges="519913261#1 519913261#0 -897592613 519913263#0 519913263#1" busStop="1008.TA.92-1-N-j24-1.88.H.14" /> 
        <ride busStop="1008.TA.92-1-N-j24-1.88.H.15" intended="1226.TA.92-1-N-j24-1.89.H.0" depart="32690.00" /> 
        <walk edges="819942944#3 -819942944#4 819945211 -1467922383 819945210#0 41595601#0 -41595601#2 41595601#3 41595601#4 -41595601#5 152337236#1 25412019" busStop="262.TA.92-10-J-j24-1.4.H.10" /> 
        <ride busStop="1034.TA.92-2-L-j24-1.15.H.13" intended="112.TA.92-2-L-j24-1.3.H.0" depart="32990.00" /> 
        <walk edges="25303488#4 1068735334 69347933#0 -69347933#1 -188730896#0 -188730896#1 -188730896#2 188730896#3 -188730896#4 188730896#5 -188730896#6 -196520689#0" arrivalPos="127.56" />
    </person>
    <person id="144" depart="32585.92" departPos="random">
        <walk edges="519913257#1 519913257#0 -904728442 -897592613 519913263#0 519913263#1" busStop="1008.TA.92-1-N-j24-1.88.H.14" /> 
        <ride busStop="1008.TA.92-1-N-j24-1.88.H.19" intended="1226.TA.92-1-N-j24-1.89.H.0" depart="32690.00" /> 
        <walk edges="-25303487#4 -25303487#3" arrivalPos="70.72" />
    </person>
    <person id="24" depart="32987.11" departPos="random">
        <walk edges="519913265#1 519913265#0 120840710 519913263#0 519913263#1" busStop="1008.TA.92-1-N-j24-1.88.H.14" /> 
        <ride busStop="16.TA.96-290-0-j24-1.26.H.16" intended="21.TA.96-290-0-j24-1.10.H.0" depart="33290.00" /> 
        <walk edges="1426892794#3 1426892796 1426892784 1426892791 1426892783 1426892797 -1024855417 -1426892804 1424064286 -429497064 -1426892773 -429497063#1 429497063#0 1187206777 370855281#7 -370855281#6" busStop="24.TA.96-290-3-j24-1.3.R.2" /> 
        <ride busStop="24.TA.96-290-3-j24-1.3.R.4" intended="27.TA.96-290-3-j24-1.3.R.0" depart="38090.00" /> 
        <walk edges="-62065386 120839520 -41157381 171771447#1" arrivalPos="4.60" />
    </person>
    <person id="110" depart="33017.02" departPos="random">
        <walk edges="519913257#1" busStop="1.TA.92-4-Q-j24-1.7.R.13" /> 
        <ride busStop="114.TA.92-9-H-j24-1.10.H.4" intended="305.TA.96-260-1-j24-1.21.R.0" depart="33470.00" /> 
        <walk edges="-170952322#1 30957914#0 30957914#1 -30957914#2 317053074 -170940321#0" arrivalPos="53.92" />
    </person>
    <person id="18" depart="33157.33" departPos="random">
        <walk edges="519913265#1 519913265#0 120840710 519913263#0 519913263#1" busStop="1008.TA.92-1-N-j24-1.88.H.14" /> 
        <ride busStop="14.TA.96-290-0-j24-1.25.H.7" intended="21.TA.96-290-0-j24-1.10.H.0" depart="33290.00" /> 
        <walk edges="-633986854#1 -1083273106" arrivalPos="9.15" />
    </person>
    <person id="67" depart="33320.00" departPos="random">
        <walk edges="519913265#1 519913265#0 120840710 897592613 904728442 519913257#0 519913257#1" busStop="1.TA.92-4-Q-j24-1.7.R.13" /> 
        <ride busStop="1008.TA.92-1-N-j24-1.88.H.25" intended="305.TA.96-260-1-j24-1.21.R.0" depart="33470.00" /> 
        <ride busStop="1008.TA.92-1-N-j24-1.88.H.26" intended="1564.TA.92-1-N-j24-1.89.H.0" depart="35210.00" /> 
        <ride busStop="459.TA.92-10-J-j24-1.71.H.29" intended="948.TA.92-2-L-j24-1.15.H.0" depart="35570.00" /> 
        <walk edges="-894905824 -256959704#0 -209755663#4 209755663#3 209755663#2 -209755663#0 1317098557" arrivalPos="3.58" />
    </person>
    <person id="77" depart="33377.06" departPos="random">
        <walk edges="519913257#1" busStop="1.TA.92-4-Q-j24-1.7.R.13" /> 
        <ride busStop="1008.TA.92-1-N-j24-1.88.H.25" intended="305.TA.96-260-1-j24-1.21.R.0" depart="33470.00" /> 
        <ride busStop="2386.TA.92-1-N-j24-1.93.R.0" intended="562.TA.92-6-I-j24-1.3.H.0" depart="34610.00" /> 
        <walk edges="1068735330#7 -1068735330#5 1068735330#4 -1068735330#2 1068735330#1" arrivalPos="4.32" />
    </person>
    <person id="45" depart="33442.55" departPos="random">
        <walk edges="519913263#1 519913263#0 897592613 904728442 519913257#0 519913257#1" busStop="1.TA.92-4-Q-j24-1.7.R.13" /> 
        <ride busStop="1008.TA.92-1-N-j24-1.88.H.25" intended="305.TA.96-260-1-j24-1.21.R.0" depart="33470.00" /> 
        <ride busStop="1008.TA.92-1-N-j24-1.88.H.26" intended="1564.TA.92-1-N-j24-1.89.H.0" depart="35210.00" /> 
        <ride busStop="459.TA.92-10-J-j24-1.71.H.28" intended="948.TA.92-2-L-j24-1.15.H.0" depart="35570.00" /> 
        <walk edges="-96461182#0 1472605488#1 1472605488#0 -150277078#5 150277078#4 -56195874#7 -56195874#6" arrivalPos="0.40" />
    </person>
    <person id="102" depart="33553.28" departPos="random">
        <walk edges="519913263#1 519913263#0 897592613 519913261#0 519913261#1" busStop="154.TA.92-1-N-j24-1.77.H.0" /> 
        <ride busStop="1008.TA.92-1-N-j24-1.88.H.15" intended="1996.TA.92-9-H-j24-1.12.R.0" depart="33890.00" /> 
        <ride busStop="1008.TA.92-1-N-j24-1.88.H.25" intended="562.TA.92-6-I-j24-1.3.H.0" depart="34130.00" /> 
        <ride busStop="1008.TA.92-1-N-j24-1.88.H.26" intended="1564.TA.92-1-N-j24-1.89.H.0" depart="35210.00" /> 
        <ride busStop="459.TA.92-10-J-j24-1.71.H.27" intended="948.TA.92-2-L-j24-1.15.H.0" depart="35570.00" /> 
        <walk edges="-209788013 76091869#1" arrivalPos="162.29" />
    </person>
    <person id="3" depart="33648.60" departPos="random">
        <walk edges="519913263#1 519913263#0 897592613 519913261#0 519913261#1" busStop="154.TA.92-1-N-j24-1.77.H.0" /> 
        <ride busStop="1008.TA.92-1-N-j24-1.88.H.15" intended="1996.TA.92-9-H-j24-1.12.R.0" depart="33890.00" /> 
        <ride busStop="1008.TA.92-1-N-j24-1.88.H.25" intended="562.TA.92-6-I-j24-1.3.H.0" depart="34130.00" /> 
        <ride busStop="1008.TA.92-1-N-j24-1.88.H.26" intended="1564.TA.92-1-N-j24-1.89.H.0" depart="35210.00" /> 
        <ride busStop="459.TA.92-10-J-j24-1.71.H.34" intended="948.TA.92-2-L-j24-1.15.H.0" depart="35570.00" /> 
        <ride busStop="14.TA.96-290-0-j24-1.25.H.11" intended="15.TA.96-290-0-j24-1.25.H.0" depart="37850.00" /> 
        <ride busStop="24.TA.96-290-3-j24-1.3.R.4" intended="24.TA.96-290-3-j24-1.3.R.0" depart="40010.00" /> 
        <walk edges="-62065386 120839520 -41157381 171771447#1 171771447#2 -171771447#3 890086160#0 890086160#1 -890086160#2" arrivalPos="0.78" />
    </person>
    <person id="140" depart="33753.66" departPos="random">
        <walk edges="519913257#1 519913257#0 -904728442 519913261#0 519913261#1" busStop="154.TA.92-1-N-j24-1.77.H.0" /> 
        <ride busStop="1008.TA.92-1-N-j24-1.88.H.15" intended="1996.TA.92-9-H-j24-1.12.R.0" depart="33890.00" /> 
        <ride busStop="1008.TA.92-1-N-j24-1.88.H.22" intended="562.TA.92-6-I-j24-1.3.H.0" depart="34130.00" /> 
        <walk edges="170940321#0 317053074" arrivalPos="98.39" />
    </person>
    <person id="40" depart="33784.81" departPos="random">
        <walk edges="519913261#1" busStop="154.TA.92-1-N-j24-1.77.H.0" /> 
        <ride busStop="1008.TA.92-1-N-j24-1.88.H.15" intended="1996.TA.92-9-H-j24-1.12.R.0" depart="33890.00" /> 
        <ride busStop="1008.TA.92-1-N-j24-1.88.H.25" intended="562.TA.92-6-I-j24-1.3.H.0" depart="34130.00" /> 
        <ride busStop="1008.TA.92-1-N-j24-1.88.H.26" intended="1564.TA.92-1-N-j24-1.89.H.0" depart="35210.00" /> 
        <ride busStop="459.TA.92-10-J-j24-1.71.H.29" intended="948.TA.92-2-L-j24-1.15.H.0" depart="35570.00" /> 
        <walk edges="-894905824 -256959704#0 -209755663#4 209755663#3 209755663#2 -209755663#0 1317098557 -58413641 -150335026#4 150335026#3 150335026#2" arrivalPos="1.29" />
    </person>
    <person id="52" depart="34028.84" departPos="random">
        <walk edges="519913263#1" busStop="1008.TA.92-1-N-j24-1.88.H.14" /> 
        <ride busStop="1008.TA.92-1-N-j24-1.88.H.23" intended="666.TA.92-9-H-j24-1.10.H.0" depart="34490.00" /> 
        <ride busStop="1008.TA.92-1-N-j24-1.88.H.26" intended="1564.TA.92-1-N-j24-1.89.H.0" depart="35150.00" /> 
        <ride busStop="459.TA.92-10-J-j24-1.71.H.31" intended="948.TA.92-2-L-j24-1.15.H.0" depart="35570.00" /> 
        <walk edges="-56240189#0 1418170811 25418326#1" arrivalPos="450.48" />
    </person>
    <person id="90" depart="34261.17" departPos="random">
        <walk edges="519913257#1 519913257#0 -904728442 -897592613 519913263#0 519913263#1" busStop="1008.TA.92-1-N-j24-1.88.H.14" /> 
        <ride busStop="1008.TA.92-1-N-j24-1.88.H.23" intended="666.TA.92-9-H-j24-1.10.H.0" depart="34490.00" /> 
        <ride busStop="1008.TA.92-1-N-j24-1.88.H.26" intended="1564.TA.92-1-N-j24-1.89.H.0" depart="35150.00" /> 
        <walk edges="1086005529 14014136#0 1086005528 -1086005527#0 -147218475#0 147218475#2 -116715858 -116507538#0 116507538#2 116507538#3 -116507538#4 116576984#0 116576984#1" arrivalPos="18.09" />
    </person>
    <person id="98" depart="34281.72" departPos="random">
        <walk edges="519913261#1 519913261#0 -897592613 519913263#0 519913263#1" busStop="1008.TA.92-1-N-j24-1.88.H.14" /> 
        <ride busStop="1008.TA.92-1-N-j24-1.88.H.23" intended="666.TA.92-9-H-j24-1.10.H.0" depart="34490.00" /> 
        <ride busStop="1008.TA.92-1-N-j24-1.88.H.26" intended="1564.TA.92-1-N-j24-1.89.H.0" depart="35150.00" /> 
        <walk edges="1086005529 14014136#0 1086005528 -1086005527#0 -147218475#0 147218475#2 -116715858 -31061888#1 31061889#0 31061889#2 -31061889#3 -31061889#4 186141915#0 -186141915#1 1430507283 -645951511#0 1085798451 -1068941219#1 -1068941219#2 -1068941219#3 1068941219#4 1068941219#5 1068941219#6 1068941219#7" arrivalPos="13.63" />
    </person>
    <person id="34" depart="34296.51" departPos="random">
        <walk edges="519913265#1 519913265#0 120840710 519913263#0 519913263#1" busStop="1008.TA.92-1-N-j24-1.88.H.14" /> 
        <ride busStop="1008.TA.92-1-N-j24-1.88.H.23" intended="666.TA.92-9-H-j24-1.10.H.0" depart="34490.00" /> 
        <ride busStop="1008.TA.92-1-N-j24-1.88.H.26" intended="1564.TA.92-1-N-j24-1.89.H.0" depart="35150.00" /> 
        <ride busStop="459.TA.92-10-J-j24-1.71.H.34" intended="948.TA.92-2-L-j24-1.15.H.0" depart="35570.00" /> 
        <ride busStop="14.TA.96-290-0-j24-1.25.H.7" intended="15.TA.96-290-0-j24-1.25.H.0" depart="37850.00" /> 
        <ride busStop="16.TA.96-290-0-j24-1.26.H.4" intended="28.TA.96-290-0-j24-1.10.H.0" depart="39530.00" /> 
        <walk edges="-430248865#10 430248865#9" arrivalPos="23.99" />
    </person>
    <person id="41" depart="34442.72" departPos="random">
        <walk edges="519913257#1 519913257#0 -904728442 -897592613 519913263#0 519913263#1" busStop="1008.TA.92-1-N-j24-1.88.H.14" /> 
        <ride busStop="1008.TA.92-1-N-j24-1.88.H.23" intended="666.TA.92-9-H-j24-1.10.H.0" depart="34490.00" /> 
        <ride busStop="1008.TA.92-1-N-j24-1.88.H.26" intended="1564.TA.92-1-N-j24-1.89.H.0" depart="35150.00" /> 
        <ride busStop="459.TA.92-10-J-j24-1.71.H.29" intended="948.TA.92-2-L-j24-1.15.H.0" depart="35570.00" /> 
        <walk edges="-894905824 -256959704#0 -209755663#4 209755663#3 209755663#2 -209755663#0 1317098557 59637812#0 59637812#1 -59637812#2 -59637812#3 59637812#4 -59637812#5 59637812#7 -59637812#8 59637812#9 -59637812#10 -1086010084 -1086010083 -175833044#1 175833044#0 175833041 175833047#0 -175833047#1 -175833047#2 -175833043 -426408073 198123925#0 198123925#1" arrivalPos="43.84" />
    </person>
    <person id="21" depart="34645.72" departPos="random">
        <walk edges="519913263#1" busStop="1008.TA.92-1-N-j24-1.88.H.14" /> 
        <ride busStop="14.TA.96-290-0-j24-1.25.H.12" intended="15.TA.96-290-0-j24-1.25.H.0" depart="36290.00" /> 
        <walk edges="391661586 128157724#0 128157724#1 -1162541061#0 1162541061#1 -1162541061#2 -1162541061#3" arrivalPos="4.37" />
    </person>
    <person id="132" depart="35093.29" departPos="random">
        <walk edges="519913263#1 519913263#0 -120840710 -903531446 -120840712#0 -47578286 1068735342#0 1068735342#1 -819942945#0 819942945#2 1068735337 -152520535 819942944#2 819942944#3 -819942944#4 819945211 -1467922383 819945209 25303490 1068735336#0 -1068735336#1 -1068735336#2 1068735336#3 -1115020159 1115020158" busStop="1034.TA.92-2-L-j24-1.15.H.12" /> 
        <ride busStop="1034.TA.92-2-L-j24-1.15.H.13" intended="155.TA.92-2-L-j24-1.3.H.0" depart="36650.00" /> 
        <walk edges="25303488#4" arrivalPos="37.61" />
    </person>
    <person id="139" depart="35362.44" departPos="random">
        <walk edges="519913265#1 519913265#0 120840710 897592613 519913261#0 519913261#1" busStop="154.TA.92-1-N-j24-1.77.H.0" /> 
        <ride busStop="1008.TA.92-1-N-j24-1.88.H.15" intended="1647.TA.92-9-H-j24-1.12.R.0" depart="35690.00" /> 
        <ride busStop="2386.TA.92-1-N-j24-1.93.R.0" intended="463.TA.92-6-I-j24-1.3.H.0" depart="35930.00" /> 
        <walk edges="1068735330#7 1068735332#3 -191253662#7 191253662#6 191253662#5 -191253662#4 191253662#3 -191253662#2 191253662#1 -191378082#1 191378082#0" arrivalPos="12.02" />
    </person>
    <person id="86" depart="35367.72" departPos="random">
        <walk edges="519913257#1 519913257#0 -904728442 -897592613 519913263#0 519913263#1" busStop="1008.TA.92-1-N-j24-1.88.H.14" /> 
        <ride busStop="1008.TA.92-1-N-j24-1.88.H.26" intended="15.TA.96-290-0-j24-1.25.H.0" depart="36290.00" /> 
        <walk edges="1086005529 1136237770 1136237769 1086005530 1086005531 -19738795 -1050853679 19738790#0 19738790#1 25418588#1" busStop="1008.TA.92-1-N-j24-1.88.H.27" /> 
        <ride busStop="1008.TA.92-1-N-j24-1.88.H.28" intended="733.TA.92-1-N-j24-1.81.H.0" depart="37370.00" /> 
        <walk edges="30957916#1 30957916#2 30957916#3 -30957916#4 918403989#0 918403989#1 25418590#0 25418590#1 -25418590#2 -25418590#4" arrivalPos="3.64" />
    </person>
    <person id="7" depart="35410.45" departPos="random">
        <walk edges="519913257#1 519913257#0 -904728442 -897592613 519913263#0 519913263#1" busStop="1008.TA.92-1-N-j24-1.88.H.14" /> 
        <ride busStop="14.TA.96-290-0-j24-1.25.H.7" intended="15.TA.96-290-0-j24-1.25.H.0" depart="36290.00" /> 
        <walk edges="-633986854#1 1069366698 502426859#0 -502426859#1 -502426859#2 502426859#4 -502426859#5 -502426860#0 502426860#1" arrivalPos="63.52" />
    </person>
    <person id="0" depart="35482.39" departPos="random">
        <walk edges="519913265#1 519913265#0 120840710 519913263#0 519913263#1" busStop="1008.TA.92-1-N-j24-1.88.H.14" /> 
        <ride busStop="14.TA.96-290-0-j24-1.25.H.7" intended="15.TA.96-290-0-j24-1.25.H.0" depart="36290.00" /> 
        <ride busStop="16.TA.96-290-0-j24-1.26.H.4" intended="28.TA.96-290-0-j24-1.10.H.0" depart="39530.00" /> 
        <walk edges="-430248865#10 430248865#9 -430248865#8 430248865#7 1054486961#0 -1054486961#1 1054486961#2" arrivalPos="37.94" />
    </person>
    <person id="69" depart="35531.80" departPos="random">
        <walk edges="519913265#1 519913265#0 120840710 519913263#0 519913263#1" busStop="1008.TA.92-1-N-j24-1.88.H.14" /> 
        <ride busStop="459.TA.92-10-J-j24-1.71.H.28" intended="15.TA.96-290-0-j24-1.25.H.0" depart="36290.00" /> 
        <walk edges="-96461182#0 96461182#1 -96461182#2 -66846274 14014133#2 14014133#3 -56240279#4" arrivalPos="14.25" />
    </person>
    <person id="37" depart="35891.00" departPos="random">
        <walk edges="519913257#1 519913257#0 -904728442 -897592613 519913263#0 519913263#1" busStop="1008.TA.92-1-N-j24-1.88.H.14" /> 
        <ride busStop="459.TA.92-10-J-j24-1.71.H.31" intended="15.TA.96-290-0-j24-1.25.H.0" depart="36290.00" /> 
        <ride busStop="459.TA.92-10-J-j24-1.71.H.32" intended="28.TA.96-290-0-j24-1.10.H.0" depart="38270.00" /> 
        <walk edges="208825826 -209742059" arrivalPos="726.03" />
    </person>
    <person id="180" depart="36088.60" departPos="random">
        <walk edges="-501346489#1 501346489#2 -977972909 -315159485#0 -315159485#1 315159485#2 315159485#3 315159485#4 -315159485#5 -315159485#6 1068729371#0 -1068729371#1 -1068729371#2 170952349#0 -170952349#1 -25418325#0 -25418325#1 -1136143562#1 1136143562#0 185845833#3 -185845833#1 -185845833#0 -501346488#2 -501346488#1 -501346488#0 -315159494#2 315159494#1 -1136215938 315159496#3 315159496#2 315159496#1 -315159496#0" busStop="1136.TA.92-10-J-j24-1.22.R.1" /> 
        <ride busStop="1136.TA.92-10-J-j24-1.22.R.13" intended="2191.TA.92-2-L-j24-1.38.R.0" depart="38510.00" /> 