<routes xmlns:xsi="http://www.w3.org/2001/XMLSchema-instance" xsi:noNamespaceSchemaLocation="http://sumo.dlr.de/xsd/routes_file.xsd">
    <person id="d794" depart="28836.64" departPos="random">
        <ride from="519913263#1" to="-210208895" arrivalPos="18.71" lines="taxi" />
        <walk edges="-210208895" arrivalPos="44.89" />
    </person>
    <person id="d291" depart="28852.47" departPos="random">
        <ride from="519913265#1" to="-96461182#0" arrivalPos="7.50" lines="taxi" />
        <walk edges="-96461182#0 1472605488#1 1472605488#0 1201541125 52959697#0 52959697#1 52959697#2 -52959697#3 56085325#0 -56085325#1 56085325#2 56085325#3 -56085325#4 56085325#5" arrivalPos="92.65" />
    </person>
    <person id="d926" depart="28857.01" departPos="random">
        <ride from="519913257#1" to="-268146971#2" arrivalPos="37.39" lines="taxi" />
        <walk edges="-268146971#2 -268146971#3" arrivalPos="1.24" />
    </person>
    <person id="d58" depart="28921.78" departPos="random">
        <ride from="519913257#1" to="-502426851#0" arrivalPos="11.18" lines="taxi" />
        <walk edges="-502426851#0 -391657350#0" arrivalPos="132.50" />
    </person>
    <person id="d981" depart="28925.00" departPos="random">
        <ride from="519913265#1" to="-210208895" arrivalPos="18.71" lines="taxi" />
        <walk edges="-210208895" arrivalPos="29.72" />
    </person>
    <person id="d353" depart="28930.11" departPos="random">
        <ride from="519913263#1" to="209755663#3" arrivalPos="2.55" lines="taxi" />
        <walk edges="209755663#3 209755663#2 -209755663#0 1317098557" arrivalPos="0.29" />
    </person>
    <person id="d131" depart="28979.52" departPos="random">
        <ride from="519913265#1" to="977972909" arrivalPos="68.09" lines="taxi" />
        <walk edges="977972909 -315159485#0" arrivalPos="21.70" />
    </person>
    <person id="d229" depart="29010.76" departPos="random">
        <ride from="519913257#1" to="208825826" arrivalPos="41.20" lines="taxi" />
        <walk edges="208825826 -208825827#0 208825827#2" arrivalPos="12.55" />
    </person>
    <person id="d95" depart="29122.82" departPos="random">
        <ride from="519913263#1" to="365973802" arrivalPos="24.53" lines="taxi" />
        <walk edges="365973802 -1162538599#0" arrivalPos="52.30" />
    </person>
    <person id="d441" depart="29139.76" departPos="random">
        <ride from="519913263#1" to="25418590#1" arrivalPos="2.00" lines="taxi" />
        <walk edges="25418590#1 30957918#0 30957921#0 30957922" arrivalPos="25.07" />
    </person>
    <person id="d563" depart="29140.80" departPos="random">
        <ride from="519913263#1" to="30957916#1" arrivalPos="29.75" lines="taxi" />
        <walk edges="30957916#1" arrivalPos="0.28" />
    </person>
    <person id="d542" depart="29142.66" departPos="random">
        <ride from="519913261#1" to="25418588#1" arrivalPos="7.50" lines="taxi" />
        <walk edges="25418588#1" arrivalPos="83.61" />
    </person>
    <person id="d314" depart="29150.79" departPos="random">
        <ride from="519913257#1" to="56240189#0" arrivalPos="27.49" lines="taxi" />
        <walk edges="56240189#0 -188063062" arrivalPos="8.88" />
    </person>
    <person id="d464" depart="29155.36" departPos="random">
        <ride from="519913265#1" to="1086005529" arrivalPos="102.22" lines="taxi" />
        <walk edges="1086005529 14014136#0 1086005528 -1086005527#0 31061886#0 -31061886#1 31061886#2 -31061886#3" arrivalPos="13.48" />
    </person>
    <person id="d92" depart="29197.95" departPos="random">
        <ride from="519913263#1" to="890169725#1" arrivalPos="3.09" lines="taxi" />
        <walk edges="890169725#1 890169723#0" arrivalPos="33.48" />
    </person>
    <person id="d422" depart="29225.10" departPos="random">
        <ride from="519913261#1" to="1068735330#1" arrivalPos="7.04" lines="taxi" />
        <walk edges="1068735330#1 30952483#0 -30952483#1 30952483#2 30952483#3 -30952483#4" arrivalPos="1.30" />
    </person>
    <person id="d896" depart="29303.48" departPos="random">
        <ride from="519913265#1" to="740109140" arrivalPos="20.48" lines="taxi" />
        <walk edges="740109140" arrivalPos="4.07" />
    </person>
    <person id="d847" depart="29405.51" departPos="random">
        <ride from="519913261#1" to="-894849663" arrivalPos="34.23" lines="taxi" />
        <walk edges="-894849663 -25418244#0" arrivalPos="12.25" />
    </person>
    <person id="d384" depart="29417.73" departPos="random">
        <ride from="519913265#1" to="208825826" arrivalPos="41.20" lines="taxi" />
        <walk edges="208825826 208825827#0" arrivalPos="34.50" />
    </person>
    <person id="d638" depart="29474.64" departPos="random">
        <ride from="519913261#1" to="-30957907" arrivalPos="66.03" lines="taxi" />
        <walk edges="-30957907 -1219872250" arrivalPos="95.95" />
    </person>
    <person id="d289" depart="29479.22" departPos="random">
        <ride from="519913263#1" to="256959704#2" arrivalPos="7.50" lines="taxi" />
        <walk edges="256959704#2 -256959704#0 56257117#0 -56257117#1" arrivalPos="1.52" />
    </person>
    <person id="d838" depart="29484.37" departPos="random">
        <ride from="519913257#1" to="-894849663" arrivalPos="34.23" lines="taxi" />
        <walk edges="-894849663 -25418244#0" arrivalPos="7.18" />
    </person>
    <person id="d222" depart="29493.28" departPos="random">
        <ride from="519913257#1" to="-1443580513#2" arrivalPos="13.80" lines="taxi" />
        <walk edges="-1443580513#2 -1443580513#3 1443580513#4" arrivalPos="3.95" />
    </person>
    <person id="d537" depart="29600.84" departPos="random">
        <ride from="519913257#1" to="18887954#0" arrivalPos="6.62" lines="taxi" />
        <walk edges="18887954#0 116715858 -147218475#2" arrivalPos="17.98" />
    </person>
    <person id="d325" depart="29625.84" departPos="random">
        <ride from="519913265#1" to="-96461182#0" arrivalPos="7.50" lines="taxi" />
        <walk edges="-96461182#0 1472605488#1 -56195874#1 -56195874#2 56195874#5" arrivalPos="55.42" />
    </person>
    <person id="d528" depart="29632.02" departPos="random">
        <ride from="519913263#1" to="25418588#1" arrivalPos="7.50" lines="taxi" />
        <walk edges="25418588#1" arrivalPos="102.40" />
    </person>
    <person id="d587" depart="29663.89" departPos="random">
        <ride from="519913261#1" to="-30957907" arrivalPos="66.03" lines="taxi" />
        <walk edges="-30957907 26167898#0" arrivalPos="17.31" />
    </person>
    <person id="d756" depart="29771.72" departPos="random">
        <ride from="519913265#1" to="30952515#0" arrivalPos="5.29" lines="taxi" />
        <walk edges="30952515#0 72562019#0 72562019#1" arrivalPos="2.80" />
    </person>
    <person id="d653" depart="29800.58" departPos="random">
        <ride from="519913257#1" to="25303488#4" arrivalPos="38.05" lines="taxi" />
        <walk edges="25303488#4 25303488#3" arrivalPos="175.72" />
    </person>
    <person id="d939" depart="29852.45" departPos="random">
        <ride from="519913263#1" to="25412019" arrivalPos="14.90" lines="taxi" />
        <walk edges="25412019 25412020#0 152516783#4 152516783#3 152516783#2 152516783#1" arrivalPos="14.64" />
    </person>
    <person id="d265" depart="29880.92" departPos="random">
        <ride from="519913261#1" to="56240189#4" arrivalPos="23.74" lines="taxi" />
        <walk edges="56240189#4 -1212211274" arrivalPos="0.52" />
    </person>
    <person id="d139" depart="29903.27" departPos="random">
        <ride from="519913261#1" to="1083273108#2" arrivalPos="7.50" lines="taxi" />
        <walk edges="1083273108#2 123066460" arrivalPos="36.66" />
    </person>
    <person id="d410" depart="29914.89" departPos="random">
        <ride from="519913261#1" to="187198083#0" arrivalPos="12.48" lines="taxi" />
        <walk edges="187198083#0 116575510#0 116575510#1 116575510#2" arrivalPos="46.67" />
    </person>
    <person id="d339" depart="29919.15" departPos="random">
        <ride from="519913257#1" to="208825826" arrivalPos="41.20" lines="taxi" />
        <walk edges="208825826 208825827#0" arrivalPos="17.05" />
    </person>
    <person id="d1005" depart="29922.19" departPos="random">
        <ride from="519913265#1" to="740109140" arrivalPos="20.48" lines="taxi" />
        <walk edges="740109140" arrivalPos="64.65" />
    </person>
    <person id="d758" depart="29953.78" departPos="random">
        <ride from="519913257#1" to="-30957907" arrivalPos="66.03" lines="taxi" />
        <walk edges="-30957907 26167898#0 26167898#1 -26167908#1 26167908#3 26167908#4 235361058#0 235361058#1" arrivalPos="4.09" />
    </person>
    <person id="d347" depart="29969.09" departPos="random">
        <ride from="519913265#1" to="209755663#3" arrivalPos="2.55" lines="taxi" />
        <walk edges="209755663#3 209755663#2 -209755663#0 1317098557 -58413641 -150335026#4 150335026#3 -150335026#2 150335026#1 150335026#0" arrivalPos="27.64" />
    </person>
    <person id="d323" depart="29979.45" departPos="random">
        <ride from="519913263#1" to="209755663#3" arrivalPos="2.55" lines="taxi" />
        <walk edges="209755663#3 209755663#2 -209755663#0 -58413640#0" arrivalPos="2.03" />
    </person>
    <person id="d994" depart="30007.21" departPos="random">
        <ride from="519913263#1" to="-268146971#2" arrivalPos="37.39" lines="taxi" />
        <walk edges="-268146971#2 -268146971#3" arrivalPos="3.52" />
    </person>
    <person id="d804" depart="30016.18" departPos="random">
        <ride from="519913263#1" to="740109140" arrivalPos="20.48" lines="taxi" />
        <walk edges="740109140 -196520689#0" arrivalPos="25.25" />
    </person>
    <person id="d310" depart="30029.91" departPos="random">
        <ride from="519913263#1" to="209755663#3" arrivalPos="2.55" lines="taxi" />
        <walk edges="209755663#3 209755663#2 -209755663#0 1317098557 59637812#0 59637812#1 -59637812#2 -59637812#3 59637812#4 -59637812#5 59637812#7 -59637812#8 59637812#9 -59637812#10 -1086010084 -1086010083 -175833044#1 175833044#0 175833041 241932762#4 241932762#3 -241932762#2 241932762#1 241932762#0 -426408082#1 426408082#0 -426408076#5 426408076#4 426408076#3 -426408076#2 -426408076#1 278156729#5" arrivalPos="92.86" />
    </person>
    <person id="d225" depart="30036.36" departPos="random">
        <ride from="519913261#1" to="-1443580513#2" arrivalPos="13.80" lines="taxi" />
        <walk edges="-1443580513#2 -1443580513#3 -1443580512#0 1443580513#4" arrivalPos="12.42" />
    </person>
    <person id="d68" depart="30056.12" departPos="random">
        <ride from="519913261#1" to="175833048" arrivalPos="84.81" lines="taxi" />
        <walk edges="175833048 -307930214 1068735315#1 -1068735315#0" arrivalPos="8.22" />
    </person>
    <person id="d235" depart="30098.74" departPos="random">
        <ride from="519913261#1" to="-96461182#0" arrivalPos="7.50" lines="taxi" />
        <walk edges="-96461182#0 96461182#1 -96461182#2 -66846274 14014133#2 14014131#0" arrivalPos="0.84" />
    </person>
    <person id="d992" depart="30178.96" departPos="random">
        <ride from="519913261#1" to="-1113164891" arrivalPos="19.64" lines="taxi" />
        <walk edges="-1113164891 1041492060#1" arrivalPos="2.65" />
    </person>
    <person id="d231" depart="30196.33" departPos="random">
        <ride from="519913263#1" to="-209788013" arrivalPos="516.88" lines="taxi" />
        <walk edges="-209788013 76091869#0 1136237774 1136237775 -1374473141#3 1374473141#2 1374473141#1 1374473141#0" arrivalPos="601.78" />
    </person>
    <person id="d148" depart="30205.95" departPos="random">
        <ride from="519913257#1" to="977972909" arrivalPos="68.09" lines="taxi" />
        <walk edges="977972909 -315159485#0" arrivalPos="7.05" />
    </person>
    <person id="d991" depart="30206.58" departPos="random">
        <ride from="519913265#1" to="-1113164891" arrivalPos="19.64" lines="taxi" />
        <walk edges="-1113164891 1041492060#1" arrivalPos="12.80" />
    </person>
    <person id="d875" depart="30207.38" departPos="random">
        <ride from="519913263#1" to="-894849663" arrivalPos="34.23" lines="taxi" />
        <walk edges="-894849663 -25418244#0" arrivalPos="1.25" />
    </person>
    <person id="d808" depart="30235.33" departPos="random">
        <ride from="519913257#1" to="894576901#0" arrivalPos="26.60" lines="taxi" />
        <walk edges="894576901#0" arrivalPos="22.78" />
    </person>
    <person id="d656" depart="30244.64" departPos="random">
        <ride from="519913257#1" to="-30952515#0" arrivalPos="6.12" lines="taxi" />
        <walk edges="-30952515#0 -30952515#1 1068735331" arrivalPos="48.21" />
    </person>
    <person id="d442" depart="30301.16" departPos="random">
        <ride from="519913263#1" to="30952515#0" arrivalPos="5.29" lines="taxi" />
        <walk edges="30952515#0 72562019#0 -72562019#1 72562019#2 72562019#3 72562019#4 1435131955#1 -1435131955#2 -894841757 -209049898 209049898" arrivalPos="0.12" />
    </person>
    <person id="d343" depart="30323.81" departPos="random">
        <ride from="519913261#1" to="208825826" arrivalPos="41.20" lines="taxi" />
        <walk edges="208825826 208825827#0" arrivalPos="74.10" />
    </person>
    <person id="d531" depart="30351.54" departPos="random">
        <ride from="519913261#1" to="-187633169#3" arrivalPos="7.50" lines="taxi" />
        <walk edges="-187633169#3 187633169#3" arrivalPos="56.36" />
    </person>
    <person id="d361" depart="30363.96" departPos="random">
        <ride from="519913257#1" to="-96461182#0" arrivalPos="7.50" lines="taxi" />
        <walk edges="-96461182#0 96461182#1 -96461182#2 -66846274 14014133#2 14014133#3 -56240279#4" arrivalPos="20.48" />
    </person>
    <person id="d683" depart="30493.20" departPos="random">
        <ride from="519913265#1" to="170952324#1" arrivalPos="7.50" lines="taxi" />
        <walk edges="170952324#1 170952324#0 19724261 769993301#5 769993301#4 754285231" arrivalPos="10.43" />
    </person>
    <person id="d740" depart="30495.71" departPos="random">
        <ride from="519913263#1" to="-268146971#2" arrivalPos="37.39" lines="taxi" />
        <walk edges="-268146971#2" arrivalPos="40.46" />
    </person>
    <person id="d425" depart="30535.93" departPos="random">
        <ride from="519913261#1" to="-209788013" arrivalPos="516.88" lines="taxi" />
        <walk edges="-209788013 76091869#0 1136237774 -76091870#0 1041495497" arrivalPos="16.65" />
    </person>
    <person id="d28" depart="30552.65" departPos="random">
        <ride from="519913263#1" to="-1083351550#0" arrivalPos="16.69" lines="taxi" />
        <walk edges="-1083351550#0 -1083351550#1 1083276371#0 -1083276371#1 -1083276371#2 120840219#0 -120840219#1" arrivalPos="13.95" />
    </person>
    <person id="d195" depart="30610.52" departPos="random">
        <ride from="519913263#1" to="-1443580513#2" arrivalPos="13.80" lines="taxi" />
        <walk edges="-1443580513#2 -1443580513#3 -1443580512#0 1443580513#4" arrivalPos="12.30" />
    </person>
    <person id="d351" depart="30616.96" departPos="random">
        <ride from="519913261#1" to="-894849663" arrivalPos="34.23" lines="taxi" />
        <walk edges="-894849663 894849663" arrivalPos="15.06" />
    </person>
    <person id="d174" depart="30628.28" departPos="random">
        <ride from="519913261#1" to="-1443580513#2" arrivalPos="13.80" lines="taxi" />
        <walk edges="-1443580513#2 -1443580513#3 1443580513#4" arrivalPos="8.26" />
    </person>
    <person id="d118" depart="30649.67" departPos="random">
        <ride from="519913263#1" to="890169725#1" arrivalPos="3.09" lines="taxi" />
        <walk edges="890169725#1 -890169723#0 -890169723#1 890169723#2 -1036672006#0 -1036672006#1 391653985#1 1036672007 1036672004#0" arrivalPos="1.92" />
    </person>
    <person id="d543" depart="30673.22" departPos="random">
        <ride from="519913263#1" to="25418588#1" arrivalPos="7.50" lines="taxi" />
        <walk edges="25418588#1" arrivalPos="3.46" />
    </person>
    <person id="d820" depart="30698.54" departPos="random">
        <ride from="519913263#1" to="740109140" arrivalPos="20.48" lines="taxi" />
        <walk edges="740109140 -196520689#0" arrivalPos="56.15" />
    </person>
    <person id="d440" depart="30760.62" departPos="random">
        <ride from="519913265#1" to="1050853710" arrivalPos="26.41" lines="taxi" />
        <walk edges="1050853710" arrivalPos="26.22" />
    </person>
    <person id="d1011" depart="30774.00" departPos="random">
        <ride from="519913257#1" to="25412019" arrivalPos="14.90" lines="taxi" />
        <walk edges="25412019 25412020#0 152516783#4 152516783#3 152516783#2 152516783#1" arrivalPos="57.40" />
    </person>
    <person id="d649" depart="30779.90" departPos="random">
        <ride from="519913261#1" to="25303488#4" arrivalPos="38.05" lines="taxi" />
        <walk edges="25303488#4 -1068735333 -1068735332#0 188731354#0 188731354#1" arrivalPos="7.77" />
    </person>
    <person id="d953" depart="30802.43" departPos="random">
        <ride from="519913265#1" to="-210208895" arrivalPos="18.71" lines="taxi" />
        <walk edges="-210208895" arrivalPos="9.02" />
    </person>
    <person id="d870" depart="30805.96" departPos="random">
        <ride from="519913257#1" to="-894849663" arrivalPos="34.23" lines="taxi" />
        <walk edges="-894849663 -25418244#0" arrivalPos="13.88" />
    </person>
    <person id="d327" depart="30847.66" departPos="random">
        <ride from="519913263#1" to="209755663#3" arrivalPos="2.55" lines="taxi" />
        <walk edges="209755663#3 209755663#2 -209755663#0 1317098557 59637812#0 59637812#1" arrivalPos="7.77" />
    </person>
    <person id="d554" depart="30848.98" departPos="random">
        <ride from="519913263#1" to="18887954#0" arrivalPos="6.62" lines="taxi" />
        <walk edges="18887954#0 116715858 -147218475#2" arrivalPos="9.62" />
    </person>
    <person id="d603" depart="30852.80" departPos="random">
        <ride from="519913257#1" to="-170952322#1" arrivalPos="26.09" lines="taxi" />
        <walk edges="-170952322#1 382202904#0 -382202904#1 -382202904#2 914487471#0" arrivalPos="0.02" />
    </person>
    <person id="d883" depart="30897.41" departPos="random">
        <ride from="519913265#1" to="-894849663" arrivalPos="34.23" lines="taxi" />
        <walk edges="-894849663 -25418244#0" arrivalPos="7.93" />
    </person>
    <person id="d30" depart="30916.75" departPos="random">
        <ride from="519913263#1" to="-502426852#0" arrivalPos="73.49" lines="taxi" />
        <walk edges="-502426852#0 -502426852#1 502426852#2 -502426852#3 -518702669 208216585#0" arrivalPos="46.70" />
    </person>
    <person id="d199" depart="30934.27" departPos="random">
        <ride from="519913257#1" to="-1443580513#2" arrivalPos="13.80" lines="taxi" />
        <walk edges="-1443580513#2 -1443580513#3 1443580513#4" arrivalPos="2.33" />
    </person>
    <person id="d43" depart="30938.70" departPos="random">
        <ride from="519913257#1" to="-315159496#0" arrivalPos="2.10" lines="taxi" />
        <walk edges="-315159496#0 -70702075#5 70702075#4" arrivalPos="2.64" />
    </person>
    <person id="d59" depart="30960.73" departPos="random">
        <ride from="519913257#1" to="-890169725#1" arrivalPos="3.04" lines="taxi" />
        <walk edges="-890169725#1 -890169725#2 -890169725#3 890169725#5 -890169725#5" arrivalPos="0.57" />
    </person>
    <person id="d163" depart="30962.87" departPos="random">
        <ride from="519913265#1" to="62065386" arrivalPos="7.50" lines="taxi" />
        <walk edges="62065386 120839520" arrivalPos="14.91" />
    </person>
    <person id="d359" depart="31021.78" departPos="random">
        <ride from="519913257#1" to="-894849663" arrivalPos="34.23" lines="taxi" />
        <walk edges="-894849663 894849663" arrivalPos="28.91" />
    </person>
    <person id="d36" depart="31079.74" departPos="random">
        <ride from="519913257#1" to="-633986854#1" arrivalPos="7.26" lines="taxi" />
        <walk edges="-633986854#1 1069366698 502426859#0 -502426859#1 -502426859#2 502426859#4 -502426859#5" arrivalPos="3.02" />
    </person>
    <person id="d29" depart="31113.27" departPos="random">
        <ride from="519913261#1" to="120829159" arrivalPos="10.00" lines="taxi" />
        <walk edges="120829159 1083356001 614559903 171771430 550605634#1 550605634#0" arrivalPos="20.00" />
    </person>
    <person id="d725" depart="31132.26" departPos="random">
        <ride from="519913265#1" to="170952324#1" arrivalPos="7.50" lines="taxi" />
        <walk edges="170952324#1 170952324#0 19724261 769993301#5 915198663" arrivalPos="21.73" />
    </person>
    <person id="d423" depart="31144.55" departPos="random">
        <ride from="519913265#1" to="1086005529" arrivalPos="102.22" lines="taxi" />
        <walk edges="1086005529 14014136#0 1086005528 -1086005527#0 31061886#0 -31061886#1 31061886#2 31061886#3" arrivalPos="13.15" />
    </person>
    <person id="d933" depart="31162.49" departPos="random">
        <ride from="519913265#1" to="-268146971#2" arrivalPos="37.39" lines="taxi" />
        <walk edges="-268146971#2 -268146971#3" arrivalPos="16.72" />
    </person>
    <person id="d260" depart="31203.47" departPos="random">
        <ride from="519913261#1" to="209755663#3" arrivalPos="2.55" lines="taxi" />
        <walk edges="209755663#3 209755663#2 -209755663#0 1317098557 59637812#0 59637812#1 -59637812#2 -59637812#3 59637812#4 -59637812#5" arrivalPos="6.26" />
    </person>
    <person id="d874" depart="31260.07" departPos="random">
        <ride from="519913265#1" to="-894849663" arrivalPos="34.23" lines="taxi" />
        <walk edges="-894849663 -25418244#0" arrivalPos="7.17" />
    </person>
    <person id="d5" depart="31307.60" departPos="random">
        <ride from="519913263#1" to="120829159" arrivalPos="10.00" lines="taxi" />
        <walk edges="120829159 1083356001 614559903 171771430 -171771449#3 171771449#2" arrivalPos="20.84" />
    </person>
    <person id="d166" depart="31417.42" departPos="random">
        <ride from="519913263#1" to="62065386" arrivalPos="7.50" lines="taxi" />
        <walk edges="62065386 120839520" arrivalPos="12.08" />
    </person>
    <person id="d375" depart="31452.04" departPos="random">
        <ride from="519913261#1" to="209755663#3" arrivalPos="2.55" lines="taxi" />
        <walk edges="209755663#3 209755663#2 -209755663#0 1317098557" arrivalPos="2.74" />
    </person>
    <person id="d498" depart="31517.25" departPos="random">
        <ride from="519913263#1" to="18887954#0" arrivalPos="6.62" lines="taxi" />
        <walk edges="18887954#0 116715858" arrivalPos="13.19" />
    </person>
    <person id="d941" depart="31565.87" departPos="random">
        <ride from="519913257#1" to="-1113164891" arrivalPos="19.64" lines="taxi" />
        <walk edges="-1113164891 1041492060#1" arrivalPos="15.40" />
    </person>
    <person id="d753" depart="31577.37" departPos="random">
        <ride from="519913263#1" to="25412019" arrivalPos="14.90" lines="taxi" />
        <walk edges="25412019 894576901#0" arrivalPos="0.81" />
    </person>
    <person id="d459" depart="31591.60" departPos="random">
        <ride from="519913263#1" to="1086005529" arrivalPos="102.22" lines="taxi" />
        <walk edges="1086005529 14014136#0 14014136#1" arrivalPos="0.58" />
    </person>
    <person id="d619" depart="31596.01" departPos="random">
        <ride from="519913265#1" to="30952515#0" arrivalPos="5.29" lines="taxi" />
        <walk edges="30952515#0 72562019#0 -72562019#1 -72562019#2" arrivalPos="18.16" />
    </person>
    <person id="d823" depart="31696.92" departPos="random">
        <ride from="519913261#1" to="30952515#0" arrivalPos="5.29" lines="taxi" />
        <walk edges="30952515#0 72562019#0 72562019#1" arrivalPos="6.18" />
    </person>
    <person id="d484" depart="31701.21" departPos="random">
        <ride from="519913257#1" to="30957916#1" arrivalPos="29.75" lines="taxi" />
        <walk edges="30957916#1 30957916#2 30957916#3 -30957916#4 918403989#0" arrivalPos="9.63" />
    </person>
    <person id="d436" depart="31825.03" departPos="random">
        <ride from="519913261#1" to="-209788013" arrivalPos="516.88" lines="taxi" />
        <walk edges="-209788013 76091869#0 1136237774" arrivalPos="7.55" />
    </person>
    <person id="d206" depart="31837.56" departPos="random">
        <ride from="519913257#1" to="-1443580513#2" arrivalPos="13.80" lines="taxi" />
        <walk edges="-1443580513#2 -1443580513#3 1443580513#4" arrivalPos="6.35" />
    </person>
    <person id="d885" depart="31839.23" departPos="random">
        <ride from="519913257#1" to="-894849663" arrivalPos="34.23" lines="taxi" />
        <walk edges="-894849663 -25418244#0" arrivalPos="5.95" />
    </person>
    <person id="d244" depart="31843.22" departPos="random">
        <ride from="519913257#1" to="-894905824" arrivalPos="13.28" lines="taxi" />
        <walk edges="-894905824 1068735318#0 -1068735318#1" arrivalPos="35.02" />
    </person>
    <person id="d144" depart="31854.41" departPos="random">
        <ride from="519913265#1" to="1083273108#2" arrivalPos="7.50" lines="taxi" />
        <walk edges="1083273108#2 123066460" arrivalPos="55.37" />
    </person>
    <person id="d521" depart="31898.30" departPos="random">
        <ride from="519913257#1" to="18887954#0" arrivalPos="6.62" lines="taxi" />
        <walk edges="18887954#0 116715858 -147218475#2" arrivalPos="24.80" />
    </person>
    <person id="d192" depart="31926.75" departPos="random">
        <ride from="519913263#1" to="-1443580513#2" arrivalPos="13.80" lines="taxi" />
        <walk edges="-1443580513#2 -1443580513#3 1443580513#4" arrivalPos="7.39" />
    </person>
    <person id="d989" depart="31977.99" departPos="random">
        <ride from="519913265#1" to="25412019" arrivalPos="14.90" lines="taxi" />
        <walk edges="25412019 25412020#0 152516783#4 152516783#3 152516783#2 152516783#1" arrivalPos="60.09" />
    </person>
    <person id="d290" depart="32016.28" departPos="random">
        <ride from="519913257#1" to="-96461182#0" arrivalPos="7.50" lines="taxi" />
        <walk edges="-96461182#0 96461182#1 -96461182#2 -66846274 14014133#2 14014131#0 -14014131#1 -208882166 696033777#0 208882165#1 -208882165#0" arrivalPos="14.16" />
    </person>
    <person id="d515" depart="32023.90" departPos="random">
        <ride from="519913265#1" to="30957916#1" arrivalPos="29.75" lines="taxi" />
        <walk edges="30957916#1" arrivalPos="18.83" />
    </person>
    <person id="d535" depart="32032.74" departPos="random">
        <ride from="519913257#1" to="30957916#1" arrivalPos="29.75" lines="taxi" />
        <walk edges="30957916#1" arrivalPos="15.70" />
    </person>
    <person id="d966" depart="32038.78" departPos="random">
        <ride from="519913261#1" to="-268146971#2" arrivalPos="37.39" lines="taxi" />
        <walk edges="-268146971#2 -268146971#3" arrivalPos="19.02" />
    </person>
    <person id="d156" depart="32072.04" departPos="random">
        <ride from="519913263#1" to="-502426852#0" arrivalPos="73.49" lines="taxi" />
        <walk edges="-502426852#0 502426852#0" arrivalPos="14.59" />
    </person>
    <person id="d370" depart="32096.93" departPos="random">
        <ride from="519913261#1" to="208825826" arrivalPos="41.20" lines="taxi" />
        <walk edges="208825826 208825827#0" arrivalPos="49.96" />
    </person>
    <person id="d553" depart="32132.19" departPos="random">
        <ride from="519913265#1" to="-187633169#3" arrivalPos="7.50" lines="taxi" />
        <walk edges="-187633169#3 187633169#3" arrivalPos="39.89" />
    </person>
    <person id="d94" depart="32165.36" departPos="random">
        <ride from="519913263#1" to="391661586" arrivalPos="62.32" lines="taxi" />
        <walk edges="391661586 1083277951#1 1083277951#0 -349618630#1 349618630#0 741319024#2" arrivalPos="50.84" />
    </person>
    <person id="d901" depart="32171.34" departPos="random">
        <ride from="519913261#1" to="-210208895" arrivalPos="18.71" lines="taxi" />
        <walk edges="-210208895" arrivalPos="14.17" />
    </person>
    <person id="d988" depart="32176.47" departPos="random">
        <ride from="519913261#1" to="-210208895" arrivalPos="18.71" lines="taxi" />
        <walk edges="-210208895" arrivalPos="35.88" />
    </person>
    <person id="d401" depart="32193.46" departPos="random">
        <ride from="519913257#1" to="30957916#1" arrivalPos="29.75" lines="taxi" />
        <walk edges="30957916#1 -96461188 30957932#0 -30957932#1 -30957932#2" arrivalPos="11.17" />
    </person>
    <person id="d96" depart="32235.74" departPos="random">
        <ride from="519913263#1" to="430248865#10" arrivalPos="19.03" lines="taxi" />
        <walk edges="430248865#10 430248865#9 -430248865#8 430248865#7 1054486961#0 -1054486961#1 -1054486961#2 -1054486961#3 -1054486961#4" arrivalPos="37.43" />
    </person>
    <person id="d799" depart="32250.66" departPos="random">
        <ride from="519913265#1" to="894576901#0" arrivalPos="26.60" lines="taxi" />
        <walk edges="894576901#0" arrivalPos="4.81" />
    </person>
    <person id="d974" depart="32289.13" departPos="random">
        <ride from="519913265#1" to="-210208895" arrivalPos="18.71" lines="taxi" />
        <walk edges="-210208895" arrivalPos="44.44" />
    </person>
    <person id="d138" depart="32308.99" departPos="random">
        <ride from="519913257#1" to="-633986854#1" arrivalPos="7.26" lines="taxi" />
        <walk edges="-633986854#1 -68115526#1 68115526#0 -68115532" arrivalPos="26.00" />
    </person>
    <person id="d319" depart="32334.42" departPos="random">
        <ride from="519913257#1" to="-96461182#0" arrivalPos="7.50" lines="taxi" />