<routes xmlns:xsi="http://www.w3.org/2001/XMLSchema-instance" xsi:noNamespaceSchemaLocation="http://sumo.dlr.de/xsd/routes_file.xsd">
    <person id="794" depart="28836.64" departPos="random">
        <walk edges="519913263#1 519913263#0 897592613 519913261#0 519913261#1" busStop="193.TA.92-1-N-j24-1.77.H.0" /> 
        <ride busStop="1323.TA.92-1-N-j24-1.88.H.15" lines="660.TA.92-1-N-j24-1.81.H" intended="736.TA.92-1-N-j24-1.81.H.0" depart="29090.00" /> 
        <walk edges="819942944#3 -819942944#4 819945211 -1467922383 819945210#0 41595601#0 -41595601#2 41595601#3 41595601#4 -41595601#5 -1005052428#1 -1005052428#2 819942942#0 152390930#1 -1005048061#2 1005048061#1 -1005048061#0 1005048062#1 -578147406 -268146940#2 39830434#0 39830434#1 -39830434#2 -391952926#3 391952926#2 391952926#1 -1115015077#2 1115015077#1 1115015078#3 -1115015078#2 -1115015078#1 1115015078#0 -268152262#6 -268152262#5 268152262#4 268152262#3 -268152262#2 268152262#1 -1115015079#3 1115015079#2 -210208895" arrivalPos="44.89" />
    </person>
    <person id="291" depart="28852.47" departPos="random">
        <walk edges="519913265#1 519913265#0 120840710 897592613 519913261#0 519913261#1" busStop="193.TA.92-1-N-j24-1.77.H.0" /> 
        <ride busStop="1323.TA.92-1-N-j24-1.88.H.15" lines="660.TA.92-1-N-j24-1.81.H" intended="736.TA.92-1-N-j24-1.81.H.0" depart="29090.00" /> 
        <walk edges="819942944#3 -819942944#4 819945211 -1467922383 819945210#0 41595601#0 -41595601#2 41595601#3 41595601#4 -41595601#5 152337236#1 25412019" busStop="270.TA.92-10-J-j24-1.4.H.10" /> 
        <ride busStop="506.TA.92-10-J-j24-1.71.H.27" lines="37.TA.92-2-L-j24-1.2.H" intended="37.TA.92-2-L-j24-1.2.H.0" depart="29390.00" /> 
        <ride busStop="506.TA.92-10-J-j24-1.71.H.28" lines="20.TA.96-290-0-j24-1.10.H" intended="26.TA.96-290-0-j24-1.10.H.0" depart="30410.00" /> 
        <walk edges="-96461182#0 1472605488#1 1472605488#0 1201541125 52959697#0 52959697#1 52959697#2 -52959697#3 56085325#0 -56085325#1 56085325#2 56085325#3 -56085325#4 56085325#5" arrivalPos="92.65" />
    </person>
    <person id="926" depart="28857.01" departPos="random">
        <walk edges="519913257#1 519913257#0 -904728442 -897592613 519913263#0 519913263#1" busStop="1323.TA.92-1-N-j24-1.88.H.14" /> 
        <ride busStop="1323.TA.92-1-N-j24-1.88.H.23" lines="1003.TA.92-9-H-j24-1.10.H" intended="630.TA.92-9-H-j24-1.10.H.0" depart="29090.00" /> 
        <walk edges="-170952324#1 170952324#0 19724261 769993301#0 769993301#1 769993301#2 268146971#0 -268146971#1 -268146971#2 -268146971#3" arrivalPos="1.24" />
    </person>
    <person id="58" depart="28921.78" departPos="random">
        <walk edges="519913257#1 519913257#0 -904728442 519913261#0 519913261#1" busStop="193.TA.92-1-N-j24-1.77.H.0" /> 
        <ride busStop="1323.TA.92-1-N-j24-1.88.H.15" lines="660.TA.92-1-N-j24-1.81.H" intended="736.TA.92-1-N-j24-1.81.H.0" depart="29090.00" /> 
        <walk edges="819942944#3 -819942944#4 819945211 -1467922383 819945210#0 41595601#0 -41595601#2 41595601#3 41595601#4 -41595601#5 152337236#1 25412019" busStop="270.TA.92-10-J-j24-1.4.H.10" /> 
        <ride busStop="506.TA.92-10-J-j24-1.71.H.27" lines="37.TA.92-2-L-j24-1.2.H" intended="37.TA.92-2-L-j24-1.2.H.0" depart="29390.00" /> 
        <ride busStop="16.TA.96-290-0-j24-1.26.H.14" lines="20.TA.96-290-0-j24-1.10.H" intended="26.TA.96-290-0-j24-1.10.H.0" depart="30410.00" /> 
        <walk edges="-502426851#0 -391657350#0" arrivalPos="132.50" />
    </person>
    <person id="981" depart="28925.00" departPos="random">
        <walk edges="519913265#1 519913265#0 120840710 897592613 519913261#0 519913261#1" busStop="193.TA.92-1-N-j24-1.77.H.0" /> 
        <ride busStop="1323.TA.92-1-N-j24-1.88.H.15" lines="660.TA.92-1-N-j24-1.81.H" intended="736.TA.92-1-N-j24-1.81.H.0" depart="29090.00" /> 
        <walk edges="819942944#3 -819942944#4 819945211 -1467922383 819945210#0 41595601#0 -41595601#2 41595601#3 41595601#4 -41595601#5 -1005052428#1 -1005052428#2 819942942#0 152390930#1 -1005048061#2 1005048061#1 -1005048061#0 1005048062#1 -578147406 -268146940#2 39830434#0 39830434#1 -39830434#2 -391952926#3 391952926#2 391952926#1 -1115015077#2 1115015077#1 1115015078#3 -1115015078#2 -1115015078#1 1115015078#0 -268152262#6 -268152262#5 268152262#4 268152262#3 -268152262#2 268152262#1 -1115015079#3 1115015079#2 -210208895" arrivalPos="29.72" />
    </person>
    <person id="353" depart="28930.11" departPos="random">
        <walk edges="519913263#1 519913263#0 897592613 519913261#0 519913261#1" busStop="193.TA.92-1-N-j24-1.77.H.0" /> 
        <ride busStop="1323.TA.92-1-N-j24-1.88.H.15" lines="660.TA.92-1-N-j24-1.81.H" intended="736.TA.92-1-N-j24-1.81.H.0" depart="29090.00" /> 
        <walk edges="819942944#3 -819942944#4 819945211 -1467922383 819945210#0 41595601#0 -41595601#2 41595601#3 41595601#4 -41595601#5 152337236#1 25412019" busStop="270.TA.92-10-J-j24-1.4.H.10" /> 
        <ride busStop="506.TA.92-10-J-j24-1.71.H.27" lines="37.TA.92-2-L-j24-1.2.H" intended="37.TA.92-2-L-j24-1.2.H.0" depart="29390.00" /> 
        <ride busStop="506.TA.92-10-J-j24-1.71.H.29" lines="20.TA.96-290-0-j24-1.10.H" intended="26.TA.96-290-0-j24-1.10.H.0" depart="30410.00" /> 
        <walk edges="-894905824 -256959704#0 -209755663#4 209755663#3 209755663#2 -209755663#0 1317098557" arrivalPos="0.29" />
    </person>
    <person id="131" depart="28979.52" departPos="random">
        <walk edges="519913265#1 519913265#0 120840710 897592613 519913261#0 519913261#1" busStop="193.TA.92-1-N-j24-1.77.H.0" /> 
        <ride busStop="1323.TA.92-1-N-j24-1.88.H.15" lines="660.TA.92-1-N-j24-1.81.H" intended="736.TA.92-1-N-j24-1.81.H.0" depart="29090.00" /> 
        <walk edges="819942944#3 -819942944#4 819945211 -1467922383 819945210#0 41595601#0 -41595601#2 41595601#3 41595601#4 -41595601#5 152337236#1 25412019" busStop="270.TA.92-10-J-j24-1.4.H.10" /> 
        <ride busStop="506.TA.92-10-J-j24-1.71.H.27" lines="37.TA.92-2-L-j24-1.2.H" intended="37.TA.92-2-L-j24-1.2.H.0" depart="29390.00" /> 
        <ride busStop="16.TA.96-290-0-j24-1.26.H.1" lines="20.TA.96-290-0-j24-1.10.H" intended="26.TA.96-290-0-j24-1.10.H.0" depart="30410.00" /> 
        <walk edges="-501346489#2 -977972909 -315159485#0" arrivalPos="21.70" />
    </person>
    <person id="229" depart="29010.76" departPos="random">
        <walk edges="519913257#1 519913257#0 -904728442 519913261#0 519913261#1" busStop="193.TA.92-1-N-j24-1.77.H.0" /> 
        <ride busStop="1323.TA.92-1-N-j24-1.88.H.15" lines="660.TA.92-1-N-j24-1.81.H" intended="736.TA.92-1-N-j24-1.81.H.0" depart="29090.00" /> 
        <walk edges="819942944#3 -819942944#4 819945211 -1467922383 819945210#0 41595601#0 -41595601#2 41595601#3 41595601#4 -41595601#5 152337236#1 25412019" busStop="270.TA.92-10-J-j24-1.4.H.10" /> 
        <ride busStop="506.TA.92-10-J-j24-1.71.H.27" lines="37.TA.92-2-L-j24-1.2.H" intended="37.TA.92-2-L-j24-1.2.H.0" depart="29390.00" /> 
        <ride busStop="506.TA.92-10-J-j24-1.71.H.32" lines="20.TA.96-290-0-j24-1.10.H" intended="26.TA.96-290-0-j24-1.10.H.0" depart="30410.00" /> 
        <walk edges="208825826 -208825827#0 208825827#2" arrivalPos="12.55" />
    </person>
    <person id="95" depart="29122.82" departPos="random">
        <walk edges="519913263#1" busStop="1323.TA.92-1-N-j24-1.88.H.14" /> 
        <ride busStop="19.TA.96-290-0-j24-1.32.H.33" lines="20.TA.96-290-0-j24-1.10.H" intended="26.TA.96-290-0-j24-1.10.H.0" depart="29690.00" /> 
        <walk edges="365973802 -1162538599#0" arrivalPos="52.30" />
    </person>
    <person id="441" depart="29139.76" departPos="random">
        <walk edges="519913263#1" busStop="1323.TA.92-1-N-j24-1.88.H.14" /> 
        <ride busStop="1323.TA.92-1-N-j24-1.88.H.26" lines="20.TA.96-290-0-j24-1.10.H" intended="26.TA.96-290-0-j24-1.10.H.0" depart="29690.00" /> 
        <ride busStop="100.TA.92-20-E-j24-1.2.R.1" lines="29.TA.92-20-E-j24-1.1.H" intended="40.TA.92-20-E-j24-1.1.H.0" depart="30530.00" /> 
        <walk edges="25418590#1 30957918#0 30957921#0 30957922" arrivalPos="25.07" />
    </person>
    <person id="563" depart="29140.80" departPos="random">
        <walk edges="519913263#1" busStop="1323.TA.92-1-N-j24-1.88.H.14" /> 
        <ride busStop="1323.TA.92-1-N-j24-1.88.H.26" lines="20.TA.96-290-0-j24-1.10.H" intended="26.TA.96-290-0-j24-1.10.H.0" depart="29690.00" /> 
        <ride busStop="1323.TA.92-1-N-j24-1.88.H.28" lines="29.TA.92-20-E-j24-1.1.H" intended="40.TA.92-20-E-j24-1.1.H.0" depart="30530.00" /> 
        <walk edges="30957916#1" arrivalPos="0.28" />
    </person>
    <person id="542" depart="29142.66" departPos="random">
        <walk edges="519913261#1 519913261#0 -897592613 519913263#0 519913263#1" busStop="1323.TA.92-1-N-j24-1.88.H.14" /> 
        <ride busStop="1323.TA.92-1-N-j24-1.88.H.26" lines="20.TA.96-290-0-j24-1.10.H" intended="26.TA.96-290-0-j24-1.10.H.0" depart="29690.00" /> 
        <ride busStop="1323.TA.92-1-N-j24-1.88.H.27" lines="29.TA.92-20-E-j24-1.1.H" intended="40.TA.92-20-E-j24-1.1.H.0" depart="30530.00" /> 
        <walk edges="25418588#1" arrivalPos="83.61" />
    </person>
    <person id="314" depart="29150.79" departPos="random">
        <walk edges="519913257#1 519913257#0 -904728442 -897592613 519913263#0 519913263#1" busStop="1323.TA.92-1-N-j24-1.88.H.14" /> 
        <ride busStop="506.TA.92-10-J-j24-1.71.H.31" lines="20.TA.96-290-0-j24-1.10.H" intended="26.TA.96-290-0-j24-1.10.H.0" depart="29690.00" /> 
        <walk edges="-56240189#0 -188063062" arrivalPos="8.88" />
    </person>
    <person id="464" depart="29155.36" departPos="random">
        <walk edges="519913265#1 519913265#0 120840710 519913263#0 519913263#1" busStop="1323.TA.92-1-N-j24-1.88.H.14" /> 
        <ride busStop="1323.TA.92-1-N-j24-1.88.H.26" lines="20.TA.96-290-0-j24-1.10.H" intended="26.TA.96-290-0-j24-1.10.H.0" depart="29690.00" /> 
        <walk edges="1086005529 14014136#0 1086005528 -1086005527#0 31061886#0 -31061886#1 31061886#2 -31061886#3" arrivalPos="13.48" />
    </person>
    <person id="92" depart="29197.95" departPos="random">
        <walk edges="519913263#1" busStop="1323.TA.92-1-N-j24-1.88.H.14" /> 
        <ride busStop="16.TA.96-290-0-j24-1.26.H.9" lines="20.TA.96-290-0-j24-1.10.H" intended="26.TA.96-290-0-j24-1.10.H.0" depart="29690.00" /> 
        <walk edges="-890169725#1 890169723#0" arrivalPos="33.48" />
    </person>
    <person id="422" depart="29225.10" departPos="random">
        <walk edges="519913261#1 519913261#0 -897592613 519913263#0 519913263#1" busStop="1323.TA.92-1-N-j24-1.88.H.14" /> 
        <ride busStop="506.TA.92-10-J-j24-1.71.H.21" lines="20.TA.96-290-0-j24-1.10.H" intended="26.TA.96-290-0-j24-1.10.H.0" depart="29690.00" /> 
        <walk edges="-1068735330#1 30952483#0 -30952483#1 30952483#2 30952483#3 -30952483#4" arrivalPos="1.30" />
    </person>
    <person id="896" depart="29303.48" departPos="random">
        <walk edges="519913265#1 519913265#0 120840710 519913263#0 519913263#1" busStop="1323.TA.92-1-N-j24-1.88.H.14" /> 
        <ride busStop="506.TA.92-10-J-j24-1.71.H.21" lines="20.TA.96-290-0-j24-1.10.H" intended="26.TA.96-290-0-j24-1.10.H.0" depart="29690.00" /> 
        <walk edges="-1068735330#1 -1068735330#2 1068735330#4 -1068735330#5 -209049905#0 1068735332#3 -191253662#7 191253662#6 191253662#5 -191253662#4 191253662#3 -191253662#2 191253662#1 191253662#0 -69347929 188730894#1 -188730894#0 740109140" arrivalPos="4.07" />
    </person>
    <person id="847" depart="29405.51" departPos="random">
        <walk edges="519913261#1 519913261#0 -897592613 519913263#0 519913263#1" busStop="1323.TA.92-1-N-j24-1.88.H.14" /> 
        <ride busStop="506.TA.92-10-J-j24-1.71.H.28" lines="20.TA.96-290-0-j24-1.10.H" intended="26.TA.96-290-0-j24-1.10.H.0" depart="29690.00" /> 
        <walk edges="-96461182#0 1472605488#1 1472605488#0 1201541125 52959697#0 52959697#1 52959697#2 -52959697#3 -256959700#0 -256959700#2 -170952321 -740107946 -25418244#0" arrivalPos="4.50" />
    </person>
    <person id="384" depart="29417.73" departPos="random">
        <walk edges="519913265#1 519913265#0 120840710 519913263#0 519913263#1" busStop="1323.TA.92-1-N-j24-1.88.H.14" /> 
        <ride busStop="506.TA.92-10-J-j24-1.71.H.32" lines="20.TA.96-290-0-j24-1.10.H" intended="26.TA.96-290-0-j24-1.10.H.0" depart="29690.00" /> 
        <walk edges="208825826 208825827#0" arrivalPos="73.24" />
    </person>
    <person id="638" depart="29474.64" departPos="random">
        <walk edges="519913261#1 519913261#0 -897592613 519913263#0 519913263#1" busStop="1323.TA.92-1-N-j24-1.88.H.14" /> 
        <ride busStop="506.TA.92-10-J-j24-1.71.H.20" lines="20.TA.96-290-0-j24-1.10.H" intended="26.TA.96-290-0-j24-1.10.H.0" depart="29690.00" /> 
        <walk edges="30952515#0 72562019#0 -72562019#1 72562019#2 72562019#3 72562019#4 1435131955#1 -1435131955#2 235361066 1219872251 30957907 -1219872250" arrivalPos="6.48" />
    </person>
    <person id="289" depart="29479.22" departPos="random">
        <walk edges="519913263#1" busStop="1323.TA.92-1-N-j24-1.88.H.14" /> 
        <ride busStop="506.TA.92-10-J-j24-1.71.H.29" lines="20.TA.96-290-0-j24-1.10.H" intended="26.TA.96-290-0-j24-1.10.H.0" depart="29690.00" /> 
        <walk edges="-894905824 -256959704#0 56257117#0 -56257117#1" arrivalPos="16.92" />
    </person>
    <person id="838" depart="29484.37" departPos="random">
        <walk edges="519913257#1 519913257#0 -904728442 -897592613 519913263#0 519913263#1" busStop="1323.TA.92-1-N-j24-1.88.H.14" /> 
        <ride busStop="506.TA.92-10-J-j24-1.71.H.28" lines="20.TA.96-290-0-j24-1.10.H" intended="26.TA.96-290-0-j24-1.10.H.0" depart="29690.00" /> 
        <walk edges="-96461182#0 1472605488#1 1472605488#0 1201541125 52959697#0 52959697#1 52959697#2 -52959697#3 -256959700#0 -256959700#2 -170952321 -740107946 -25418244#0" arrivalPos="4.30" />
    </person>
    <person id="222" depart="29493.28" departPos="random">
        <walk edges="519913257#1 519913257#0 -904728442 -897592613 519913263#0 519913263#1" busStop="1323.TA.92-1-N-j24-1.88.H.14" /> 
        <ride busStop="14.TA.96-290-0-j24-1.25.H.8" lines="20.TA.96-290-0-j24-1.10.H" intended="26.TA.96-290-0-j24-1.10.H.0" depart="29690.00" /> 
        <walk edges="-1443580513#2 -1443580513#3 1443580513#4" arrivalPos="8.16" />
    </person>
    <person id="537" depart="29600.84" departPos="random">
        <walk edges="519913257#1 519913257#0 -904728442 -897592613 519913263#0 519913263#1" busStop="1323.TA.92-1-N-j24-1.88.H.14" /> 
        <ride busStop="1323.TA.92-1-N-j24-1.88.H.26" lines="20.TA.96-290-0-j24-1.10.H" intended="26.TA.96-290-0-j24-1.10.H.0" depart="29690.00" /> 
        <walk edges="1086005529 14014136#0 1086005528 -1086005527#0 -147218475#0 -147218475#2" arrivalPos="25.19" />
    </person>
    <person id="325" depart="29625.84" departPos="random">
        <walk edges="519913265#1 519913265#0 120840710 519913263#0 519913263#1" busStop="1323.TA.92-1-N-j24-1.88.H.14" /> 
        <ride busStop="506.TA.92-10-J-j24-1.71.H.28" lines="20.TA.96-290-0-j24-1.10.H" intended="26.TA.96-290-0-j24-1.10.H.0" depart="29690.00" /> 
        <walk edges="-96461182#0 1472605488#1 -56195874#1 -56195874#2 56195874#5" arrivalPos="23.41" />
    </person>
    <person id="528" depart="29632.02" departPos="random">
        <walk edges="519913263#1" busStop="1323.TA.92-1-N-j24-1.88.H.14" /> 
        <ride busStop="1323.TA.92-1-N-j24-1.88.H.26" lines="20.TA.96-290-0-j24-1.10.H" intended="26.TA.96-290-0-j24-1.10.H.0" depart="29690.00" /> 
        <ride busStop="1323.TA.92-1-N-j24-1.88.H.27" lines="29.TA.92-20-E-j24-1.1.H" intended="40.TA.92-20-E-j24-1.1.H.0" depart="30530.00" /> 
        <walk edges="25418588#1" arrivalPos="67.62" />
    </person>
    <person id="587" depart="29663.89" departPos="random">
        <walk edges="519913261#1 519913261#0 -897592613 519913263#0 519913263#1" busStop="1323.TA.92-1-N-j24-1.88.H.14" /> 
        <ride busStop="506.TA.92-10-J-j24-1.71.H.20" lines="20.TA.96-290-0-j24-1.10.H" intended="26.TA.96-290-0-j24-1.10.H.0" depart="29690.00" /> 
        <walk edges="30952515#0 72562019#0 -72562019#1 72562019#2 72562019#3 72562019#4 1435131955#1 -1435131955#2 235361066 1219872251 30957907 26167898#0" arrivalPos="0.63" />
    </person>
    <person id="756" depart="29771.72" departPos="random">
        <walk edges="519913265#1 519913265#0 120840710 897592613 519913261#0 519913261#1" busStop="193.TA.92-1-N-j24-1.77.H.0" /> 
        <ride busStop="1323.TA.92-1-N-j24-1.88.H.15" lines="1200.TA.92-9-H-j24-1.12.R" intended="2168.TA.92-9-H-j24-1.12.R.0" depart="30290.00" /> 
        <ride busStop="2463.TA.92-1-N-j24-1.93.R.0" lines="333.TA.92-6-I-j24-1.3.H" intended="401.TA.92-6-I-j24-1.3.H.0" depart="30530.00" /> 
        <walk edges="1068735330#7 30957906 -1493002173 -72562018 72562019#0 72562019#1" arrivalPos="1.12" />
    </person>
    <person id="653" depart="29800.58" departPos="random">
        <walk edges="519913257#1 519913257#0 -904728442 519913261#0 519913261#1" busStop="193.TA.92-1-N-j24-1.77.H.0" /> 
        <ride busStop="1323.TA.92-1-N-j24-1.88.H.15" lines="1200.TA.92-9-H-j24-1.12.R" intended="2168.TA.92-9-H-j24-1.12.R.0" depart="30290.00" /> 
        <walk edges="819942944#3 -819942944#4 819945211 -1467922383 819945209 25303490 1068735336#0 -1068735336#1 -1068735336#2 1068735336#3 -1115020159 1115020158" busStop="1004.TA.92-2-L-j24-1.15.H.12" /> 
        <ride busStop="1004.TA.92-2-L-j24-1.15.H.13" lines="1004.TA.92-2-L-j24-1.15.H" intended="915.TA.92-2-L-j24-1.15.H.0" depart="31250.00" /> 
        <walk edges="25303488#4 25303488#3" arrivalPos="308.81" />
    </person>
    <person id="939" depart="29852.45" departPos="random">
        <walk edges="519913263#1 519913263#0 897592613 519913261#0 519913261#1" busStop="193.TA.92-1-N-j24-1.77.H.0" /> 
        <ride busStop="1323.TA.92-1-N-j24-1.88.H.15" lines="1200.TA.92-9-H-j24-1.12.R" intended="2168.TA.92-9-H-j24-1.12.R.0" depart="30290.00" /> 
        <walk edges="819942944#3 -819942944#4 819945211 -1467922383 819945210#0 41595601#0 -41595601#2 41595601#3 41595601#4 -41595601#5 152337236#1 25412019 25412020#0 152516783#4 152516783#3 152516783#2 152516783#1" arrivalPos="1.84" />
    </person>
    <person id="265" depart="29880.92" departPos="random">
        <walk edges="519913261#1" busStop="193.TA.92-1-N-j24-1.77.H.0" /> 
        <ride busStop="1323.TA.92-1-N-j24-1.88.H.15" lines="1200.TA.92-9-H-j24-1.12.R" intended="2168.TA.92-9-H-j24-1.12.R.0" depart="30290.00" /> 
        <ride busStop="1323.TA.92-1-N-j24-1.88.H.25" lines="333.TA.92-6-I-j24-1.3.H" intended="401.TA.92-6-I-j24-1.3.H.0" depart="30530.00" /> 
        <ride busStop="1323.TA.92-1-N-j24-1.88.H.26" lines="1406.TA.92-1-N-j24-1.89.H" intended="1571.TA.92-1-N-j24-1.89.H.0" depart="31610.00" /> 
        <ride busStop="506.TA.92-10-J-j24-1.71.H.31" lines="1004.TA.92-2-L-j24-1.15.H" intended="915.TA.92-2-L-j24-1.15.H.0" depart="31970.00" /> 
        <walk edges="-56240189#0 56240189#2 -56240189#3 -1212211274" arrivalPos="10.91" />
    </person>
    <person id="139" depart="29903.27" departPos="random">
        <walk edges="519913261#1" busStop="193.TA.92-1-N-j24-1.77.H.0" /> 
        <ride busStop="1323.TA.92-1-N-j24-1.88.H.15" lines="1200.TA.92-9-H-j24-1.12.R" intended="2168.TA.92-9-H-j24-1.12.R.0" depart="30290.00" /> 
        <ride busStop="1323.TA.92-1-N-j24-1.88.H.25" lines="333.TA.92-6-I-j24-1.3.H" intended="401.TA.92-6-I-j24-1.3.H.0" depart="30530.00" /> 
        <ride busStop="1323.TA.92-1-N-j24-1.88.H.26" lines="1406.TA.92-1-N-j24-1.89.H" intended="1571.TA.92-1-N-j24-1.89.H.0" depart="31610.00" /> 
        <ride busStop="506.TA.92-10-J-j24-1.71.H.34" lines="1004.TA.92-2-L-j24-1.15.H" intended="915.TA.92-2-L-j24-1.15.H.0" depart="31970.00" /> 
        <walk edges="894576903 -170952349#1 170952349#0 1068729371#2 -1068729371#1 1068729371#0 315159485#6 -315159485#5 -315159485#4 315159485#3 -315159485#2 -315159485#1 315159485#0 -977972909 -501346489#2" busStop="16.TA.96-290-0-j24-1.26.H.1" /> 
        <ride busStop="16.TA.96-290-0-j24-1.26.H.8" lines="20.TA.96-290-0-j24-1.10.H" intended="22.TA.96-290-0-j24-1.10.H.0" depart="35270.00" /> 
        <walk edges="-1083273108#2 123066460" arrivalPos="40.25" />
    </person>
    <person id="410" depart="29914.89" departPos="random">
        <walk edges="519913261#1" busStop="193.TA.92-1-N-j24-1.77.H.0" /> 
        <ride busStop="1323.TA.92-1-N-j24-1.88.H.15" lines="1200.TA.92-9-H-j24-1.12.R" intended="2168.TA.92-9-H-j24-1.12.R.0" depart="30290.00" /> 
        <ride busStop="1323.TA.92-1-N-j24-1.88.H.25" lines="333.TA.92-6-I-j24-1.3.H" intended="401.TA.92-6-I-j24-1.3.H.0" depart="30530.00" /> 
        <ride busStop="1323.TA.92-1-N-j24-1.88.H.26" lines="1406.TA.92-1-N-j24-1.89.H" intended="1571.TA.92-1-N-j24-1.89.H.0" depart="31610.00" /> 
        <walk edges="1086005529 14014136#0 1086005528 -1086005527#0 -147218475#0 147218475#2 -116715858 -31061888#1 -187198083#7 187198083#6 187198083#5 -187198083#3 -187198083#2 187198083#1 116575510#0 116575510#1 116575510#2" arrivalPos="7.90" />
    </person>
    <person id="339" depart="29919.15" departPos="random">
        <walk edges="519913257#1 519913257#0 -904728442 519913261#0 519913261#1" busStop="193.TA.92-1-N-j24-1.77.H.0" /> 
        <ride busStop="1323.TA.92-1-N-j24-1.88.H.15" lines="1200.TA.92-9-H-j24-1.12.R" intended="2168.TA.92-9-H-j24-1.12.R.0" depart="30290.00" /> 
        <ride busStop="1323.TA.92-1-N-j24-1.88.H.25" lines="333.TA.92-6-I-j24-1.3.H" intended="401.TA.92-6-I-j24-1.3.H.0" depart="30530.00" /> 
        <ride busStop="1323.TA.92-1-N-j24-1.88.H.26" lines="1406.TA.92-1-N-j24-1.89.H" intended="1571.TA.92-1-N-j24-1.89.H.0" depart="31610.00" /> 
        <ride busStop="506.TA.92-10-J-j24-1.71.H.32" lines="1004.TA.92-2-L-j24-1.15.H" intended="915.TA.92-2-L-j24-1.15.H.0" depart="31970.00" /> 
        <walk edges="208825826 208825827#0" arrivalPos="13.43" />
    </person>
    <person id="1005" depart="29922.19" departPos="random">
        <walk edges="519913265#1 519913265#0 120840710 897592613 519913261#0 519913261#1" busStop="193.TA.92-1-N-j24-1.77.H.0" /> 
        <ride busStop="1323.TA.92-1-N-j24-1.88.H.15" lines="1200.TA.92-9-H-j24-1.12.R" intended="2168.TA.92-9-H-j24-1.12.R.0" depart="30290.00" /> 
        <walk edges="819942944#3 -819942944#4 819945211 -1467922383 819945209 25303490 1068735336#0 -1068735336#1 -1068735336#2 1068735336#3 -1115020159 1115020158" busStop="1004.TA.92-2-L-j24-1.15.H.12" /> 
        <ride busStop="1004.TA.92-2-L-j24-1.15.H.13" lines="1004.TA.92-2-L-j24-1.15.H" intended="915.TA.92-2-L-j24-1.15.H.0" depart="31250.00" /> 
        <walk edges="25303488#4 1068735334 69347933#0 -69347933#1 -188730896#0 -188730896#1 -188730896#2 188730896#3 -188730896#4 188730896#5 -188730896#6 740109140" arrivalPos="27.80" />
    </person>
    <person id="758" depart="29953.78" departPos="random">
        <walk edges="519913257#1 519913257#0 -904728442 519913261#0 519913261#1" busStop="193.TA.92-1-N-j24-1.77.H.0" /> 
        <ride busStop="1323.TA.92-1-N-j24-1.88.H.15" lines="1200.TA.92-9-H-j24-1.12.R" intended="2168.TA.92-9-H-j24-1.12.R.0" depart="30290.00" /> 
        <ride busStop="1323.TA.92-1-N-j24-1.88.H.25" lines="333.TA.92-6-I-j24-1.3.H" intended="401.TA.92-6-I-j24-1.3.H.0" depart="30530.00" /> 
        <walk edges="-30957907 26167898#0 26167898#1 -26167908#1 26167908#3 26167908#4 235361058#0 235361058#1" arrivalPos="36.23" />
    </person>
    <person id="347" depart="29969.09" departPos="random">
        <walk edges="519913265#1 519913265#0 120840710 897592613 519913261#0 519913261#1" busStop="193.TA.92-1-N-j24-1.77.H.0" /> 
        <ride busStop="1323.TA.92-1-N-j24-1.88.H.15" lines="1200.TA.92-9-H-j24-1.12.R" intended="2168.TA.92-9-H-j24-1.12.R.0" depart="30290.00" /> 
        <ride busStop="1323.TA.92-1-N-j24-1.88.H.25" lines="333.TA.92-6-I-j24-1.3.H" intended="401.TA.92-6-I-j24-1.3.H.0" depart="30530.00" /> 
        <ride busStop="1323.TA.92-1-N-j24-1.88.H.26" lines="1406.TA.92-1-N-j24-1.89.H" intended="1571.TA.92-1-N-j24-1.89.H.0" depart="31610.00" /> 
        <ride busStop="506.TA.92-10-J-j24-1.71.H.29" lines="1004.TA.92-2-L-j24-1.15.H" intended="915.TA.92-2-L-j24-1.15.H.0" depart="31970.00" /> 
        <walk edges="-894905824 -256959704#0 -209755663#4 209755663#3 209755663#2 -209755663#0 1317098557 -58413641 -150335026#4 150335026#3 -150335026#2 150335026#1 150335026#0" arrivalPos="9.00" />
    </person>
    <person id="323" depart="29979.45" departPos="random">
        <walk edges="519913263#1 519913263#0 897592613 519913261#0 519913261#1" busStop="193.TA.92-1-N-j24-1.77.H.0" /> 
        <ride busStop="1323.TA.92-1-N-j24-1.88.H.15" lines="1200.TA.92-9-H-j24-1.12.R" intended="2168.TA.92-9-H-j24-1.12.R.0" depart="30290.00" /> 
        <ride busStop="1323.TA.92-1-N-j24-1.88.H.25" lines="333.TA.92-6-I-j24-1.3.H" intended="401.TA.92-6-I-j24-1.3.H.0" depart="30530.00" /> 
        <ride busStop="1323.TA.92-1-N-j24-1.88.H.26" lines="1406.TA.92-1-N-j24-1.89.H" intended="1571.TA.92-1-N-j24-1.89.H.0" depart="31610.00" /> 
        <ride busStop="506.TA.92-10-J-j24-1.71.H.29" lines="1004.TA.92-2-L-j24-1.15.H" intended="915.TA.92-2-L-j24-1.15.H.0" depart="31970.00" /> 
        <walk edges="-894905824 -256959704#0 -209755663#4 209755663#3 209755663#2 -209755663#0 -58413640#0" arrivalPos="1.03" />
    </person>
    <person id="994" depart="30007.21" departPos="random">
        <walk edges="519913263#1 519913263#0 897592613 519913261#0 519913261#1" busStop="193.TA.92-1-N-j24-1.77.H.0" /> 
        <ride busStop="1323.TA.92-1-N-j24-1.88.H.15" lines="1200.TA.92-9-H-j24-1.12.R" intended="2168.TA.92-9-H-j24-1.12.R.0" depart="30290.00" /> 
        <ride busStop="1323.TA.92-1-N-j24-1.88.H.23" lines="333.TA.92-6-I-j24-1.3.H" intended="401.TA.92-6-I-j24-1.3.H.0" depart="30530.00" /> 
        <walk edges="-170952324#1 170952324#0 19724261 769993301#0 769993301#1 769993301#2 268146971#0 -268146971#1 -268146971#2 -268146971#3" arrivalPos="15.54" />
    </person>
    <person id="804" depart="30016.18" departPos="random">
        <walk edges="519913263#1 519913263#0 897592613 519913261#0 519913261#1" busStop="193.TA.92-1-N-j24-1.77.H.0" /> 
        <ride busStop="1323.TA.92-1-N-j24-1.88.H.15" lines="1200.TA.92-9-H-j24-1.12.R" intended="2168.TA.92-9-H-j24-1.12.R.0" depart="30290.00" /> 
        <walk edges="819942944#3 -819942944#4 819945211 -1467922383 819945209 25303490 1068735336#0 -1068735336#1 -1068735336#2 1068735336#3 -1115020159 1115020158" busStop="1004.TA.92-2-L-j24-1.15.H.12" /> 
        <ride busStop="1004.TA.92-2-L-j24-1.15.H.13" lines="1004.TA.92-2-L-j24-1.15.H" intended="915.TA.92-2-L-j24-1.15.H.0" depart="31250.00" /> 
        <walk edges="25303488#4 1068735334 69347933#0 -69347933#1 -188730896#0 -188730896#1 -188730896#2 188730896#3 -188730896#4 188730896#5 -188730896#6 -196520689#0" arrivalPos="48.61" />
    </person>
    <person id="310" depart="30029.91" departPos="random">
        <walk edges="519913263#1 519913263#0 897592613 519913261#0 519913261#1" busStop="193.TA.92-1-N-j24-1.77.H.0" /> 
        <ride busStop="1323.TA.92-1-N-j24-1.88.H.15" lines="1200.TA.92-9-H-j24-1.12.R" intended="2168.TA.92-9-H-j24-1.12.R.0" depart="30290.00" /> 
        <ride busStop="1323.TA.92-1-N-j24-1.88.H.25" lines="333.TA.92-6-I-j24-1.3.H" intended="401.TA.92-6-I-j24-1.3.H.0" depart="30530.00" /> 
        <ride busStop="1323.TA.92-1-N-j24-1.88.H.26" lines="1406.TA.92-1-N-j24-1.89.H" intended="1571.TA.92-1-N-j24-1.89.H.0" depart="31610.00" /> 
        <ride busStop="506.TA.92-10-J-j24-1.71.H.29" lines="1004.TA.92-2-L-j24-1.15.H" intended="915.TA.92-2-L-j24-1.15.H.0" depart="31970.00" /> 
        <walk edges="-894905824 -256959704#0 -209755663#4 209755663#3 209755663#2 -209755663#0 1317098557 59637812#0 59637812#1 -59637812#2 -59637812#3 59637812#4 -59637812#5 59637812#7 -59637812#8 59637812#9 -59637812#10 -1086010084 -1086010083 -175833044#1 175833044#0 175833041 241932762#4 241932762#3 -241932762#2 241932762#1 241932762#0 -426408082#1 426408082#0 -426408076#5 426408076#4 426408076#3 -426408076#2 -426408076#1 278156729#5" arrivalPos="183.24" />
    </person>
    <person id="225" depart="30036.36" departPos="random">
        <walk edges="519913261#1" busStop="193.TA.92-1-N-j24-1.77.H.0" /> 
        <ride busStop="1323.TA.92-1-N-j24-1.88.H.15" lines="1200.TA.92-9-H-j24-1.12.R" intended="2168.TA.92-9-H-j24-1.12.R.0" depart="30290.00" /> 
        <ride busStop="1323.TA.92-1-N-j24-1.88.H.25" lines="333.TA.92-6-I-j24-1.3.H" intended="401.TA.92-6-I-j24-1.3.H.0" depart="30530.00" /> 
        <ride busStop="1323.TA.92-1-N-j24-1.88.H.26" lines="1406.TA.92-1-N-j24-1.89.H" intended="1571.TA.92-1-N-j24-1.89.H.0" depart="31610.00" /> 
        <ride busStop="506.TA.92-10-J-j24-1.71.H.34" lines="1004.TA.92-2-L-j24-1.15.H" intended="915.TA.92-2-L-j24-1.15.H.0" depart="31970.00" /> 
        <walk edges="894576903 -170952349#1 170952349#0 1068729371#2 -1068729371#1 1068729371#0 315159485#6 -315159485#5 -315159485#4 315159485#3 -315159485#2 -315159485#1 315159485#0 -977972909 -501346489#2" busStop="16.TA.96-290-0-j24-1.26.H.1" /> 
        <ride busStop="14.TA.96-290-0-j24-1.25.H.8" lines="20.TA.96-290-0-j24-1.10.H" intended="22.TA.96-290-0-j24-1.10.H.0" depart="35270.00" /> 
        <walk edges="-1443580513#2 -1443580513#3 1443580513#4" arrivalPos="1.15" />
    </person>
    <person id="68" depart="30056.12" departPos="random">
        <walk edges="519913261#1" busStop="193.TA.92-1-N-j24-1.77.H.0" /> 
        <ride busStop="1323.TA.92-1-N-j24-1.88.H.15" lines="1200.TA.92-9-H-j24-1.12.R" intended="2168.TA.92-9-H-j24-1.12.R.0" depart="30290.00" /> 
        <ride busStop="1323.TA.92-1-N-j24-1.88.H.25" lines="333.TA.92-6-I-j24-1.3.H" intended="401.TA.92-6-I-j24-1.3.H.0" depart="30530.00" /> 
        <ride busStop="1323.TA.92-1-N-j24-1.88.H.26" lines="1406.TA.92-1-N-j24-1.89.H" intended="1571.TA.92-1-N-j24-1.89.H.0" depart="31610.00" /> 