<routes xmlns:xsi="http://www.w3.org/2001/XMLSchema-instance" xsi:noNamespaceSchemaLocation="http://sumo.dlr.de/xsd/routes_file.xsd">
    <person id="d611" depart="28833.54" departPos="random">
        <ride from="519913263#1" to="1050853710" arrivalPos="26.41" lines="taxi" />
        <walk edges="1050853710 -1050853709#1" arrivalPos="2.89" />
    </person>
    <person id="d743" depart="28836.64" departPos="random">
        <ride from="519913263#1" to="1050853710" arrivalPos="26.41" lines="taxi" />
        <walk edges="1050853710 -1050853709#1" arrivalPos="2.31" />
    </person>
    <person id="d1046" depart="28863.18" departPos="random">
        <ride from="519913263#1" to="-268146971#2" arrivalPos="37.39" lines="taxi" />
        <walk edges="-268146971#2 -268146971#3" arrivalPos="1.24" />
    </person>
    <person id="d1398" depart="28866.73" departPos="random">
        <ride from="519913265#1" to="-210208895" arrivalPos="18.71" lines="taxi" />
        <walk edges="-210208895" arrivalPos="24.76" />
    </person>
    <person id="d1333" depart="28873.44" departPos="random">
        <ride from="519913265#1" to="-210208895" arrivalPos="18.71" lines="taxi" />
        <walk edges="-210208895" arrivalPos="29.72" />
    </person>
    <person id="d167" depart="28888.60" departPos="random">
        <ride from="519913263#1" to="56240189#4" arrivalPos="23.74" lines="taxi" />
        <walk edges="56240189#4 1212211274 -1374474693" arrivalPos="4.34" />
    </person>
    <person id="d823" depart="28892.51" departPos="random">
        <ride from="519913265#1" to="1050853710" arrivalPos="26.41" lines="taxi" />
        <walk edges="1050853710 -1050853709#1" arrivalPos="2.41" />
    </person>
    <person id="d880" depart="28895.19" departPos="random">
        <ride from="519913265#1" to="-268146971#2" arrivalPos="37.39" lines="taxi" />
        <walk edges="-268146971#2 -268146971#3" arrivalPos="6.73" />
    </person>
    <person id="d1130" depart="28914.32" departPos="random">
        <ride from="519913265#1" to="-1113164891" arrivalPos="19.64" lines="taxi" />
        <walk edges="-1113164891 1041492060#1" arrivalPos="8.60" />
    </person>
    <person id="d53" depart="28921.78" departPos="random">
        <ride from="519913257#1" to="-502426851#0" arrivalPos="11.18" lines="taxi" />
        <walk edges="-502426851#0 -391657350#0" arrivalPos="200.89" />
    </person>
    <person id="d924" depart="28925.00" departPos="random">
        <ride from="519913265#1" to="-210208895" arrivalPos="18.71" lines="taxi" />
        <walk edges="-210208895" arrivalPos="0.30" />
    </person>
    <person id="d327" depart="28930.11" departPos="random">
        <ride from="519913263#1" to="-1113164891" arrivalPos="19.64" lines="taxi" />
        <walk edges="-1113164891 1004933332#1" arrivalPos="13.29" />
    </person>
    <person id="d1526" depart="28975.40" departPos="random">
        <ride from="519913263#1" to="740109140" arrivalPos="20.48" lines="taxi" />
        <walk edges="740109140" arrivalPos="31.50" />
    </person>
    <person id="d211" depart="29010.76" departPos="random">
        <ride from="519913257#1" to="18887954#0" arrivalPos="6.62" lines="taxi" />
        <walk edges="18887954#0 -31061888#1 31061889#0 31061889#2 -31061889#3 -31061889#4 186141915#0 -186141915#1 1430507283" arrivalPos="14.95" />
    </person>
    <person id="d1474" depart="29016.05" departPos="random">
        <ride from="519913265#1" to="-210208895" arrivalPos="18.71" lines="taxi" />
        <walk edges="-210208895" arrivalPos="28.53" />
    </person>
    <person id="d1511" depart="29024.98" departPos="random">
        <ride from="519913263#1" to="740109140" arrivalPos="20.48" lines="taxi" />
        <walk edges="740109140" arrivalPos="17.88" />
    </person>
    <person id="d1059" depart="29042.15" departPos="random">
        <ride from="519913265#1" to="-1113164891" arrivalPos="19.64" lines="taxi" />
        <walk edges="-1113164891 1041492060#1" arrivalPos="0.95" />
    </person>
    <person id="d836" depart="29065.27" departPos="random">
        <ride from="519913261#1" to="1050853710" arrivalPos="26.41" lines="taxi" />
        <walk edges="1050853710 -1050853709#1" arrivalPos="2.84" />
    </person>
    <person id="d560" depart="29078.45" departPos="random">
        <ride from="519913265#1" to="1050853710" arrivalPos="26.41" lines="taxi" />
        <walk edges="1050853710 -1050853709#1" arrivalPos="1.04" />
    </person>
    <person id="d964" depart="29084.35" departPos="random">
        <ride from="519913261#1" to="-268146971#2" arrivalPos="37.39" lines="taxi" />
        <walk edges="-268146971#2 -268146971#3" arrivalPos="18.59" />
    </person>
    <person id="d876" depart="29102.63" departPos="random">
        <ride from="519913263#1" to="-268146971#2" arrivalPos="37.39" lines="taxi" />
        <walk edges="-268146971#2 -268146971#3" arrivalPos="1.26" />
    </person>
    <person id="d86" depart="29122.82" departPos="random">
        <ride from="519913263#1" to="365973802" arrivalPos="24.53" lines="taxi" />
        <walk edges="365973802 -1162538599#0" arrivalPos="49.20" />
    </person>
    <person id="d527" depart="29140.80" departPos="random">
        <ride from="519913263#1" to="1050853710" arrivalPos="26.41" lines="taxi" />
        <walk edges="1050853710 -1050853709#1" arrivalPos="0.99" />
    </person>
    <person id="d507" depart="29142.66" departPos="random">
        <ride from="519913261#1" to="1050853710" arrivalPos="26.41" lines="taxi" />
        <walk edges="1050853710 -1050853709#1" arrivalPos="2.05" />
    </person>
    <person id="d1153" depart="29264.31" departPos="random">
        <ride from="519913263#1" to="740109140" arrivalPos="20.48" lines="taxi" />
        <walk edges="740109140" arrivalPos="63.46" />
    </person>
    <person id="d1299" depart="29290.24" departPos="random">
        <ride from="519913265#1" to="-268146971#2" arrivalPos="37.39" lines="taxi" />
        <walk edges="-268146971#2 -268146971#3" arrivalPos="22.41" />
    </person>
    <person id="d843" depart="29303.48" departPos="random">
        <ride from="519913265#1" to="1050853710" arrivalPos="26.41" lines="taxi" />
        <walk edges="1050853710 -1050853709#1" arrivalPos="2.88" />
    </person>
    <person id="d641" depart="29330.66" departPos="random">
        <ride from="519913263#1" to="1050853710" arrivalPos="26.41" lines="taxi" />
        <walk edges="1050853710 -1050853709#1" arrivalPos="1.28" />
    </person>
    <person id="d1037" depart="29403.54" departPos="random">
        <ride from="519913265#1" to="-268146971#2" arrivalPos="37.39" lines="taxi" />
        <walk edges="-268146971#2 -268146971#3" arrivalPos="14.80" />
    </person>
    <person id="d795" depart="29405.51" departPos="random">
        <ride from="519913261#1" to="1050853710" arrivalPos="26.41" lines="taxi" />
        <walk edges="1050853710 -1050853709#1" arrivalPos="0.77" />
    </person>
    <person id="d1010" depart="29422.74" departPos="random">
        <ride from="519913257#1" to="-268146971#2" arrivalPos="37.39" lines="taxi" />
        <walk edges="-268146971#2 -268146971#3" arrivalPos="0.88" />
    </person>
    <person id="d1416" depart="29464.55" departPos="random">
        <ride from="519913257#1" to="-268146971#2" arrivalPos="37.39" lines="taxi" />
        <walk edges="-268146971#2 -268146971#3" arrivalPos="8.20" />
    </person>
    <person id="d985" depart="29473.69" departPos="random">
        <ride from="519913261#1" to="-268146971#2" arrivalPos="37.39" lines="taxi" />
        <walk edges="-268146971#2 -268146971#3" arrivalPos="20.79" />
    </person>
    <person id="d598" depart="29474.64" departPos="random">
        <ride from="519913261#1" to="1050853710" arrivalPos="26.41" lines="taxi" />
        <walk edges="1050853710 -1050853709#1" arrivalPos="0.52" />
    </person>
    <person id="d786" depart="29484.37" departPos="random">
        <ride from="519913257#1" to="1050853710" arrivalPos="26.41" lines="taxi" />
        <walk edges="1050853710 -1050853709#1" arrivalPos="3.10" />
    </person>
    <person id="d205" depart="29493.28" departPos="random">
        <ride from="519913257#1" to="1068735330#1" arrivalPos="7.04" lines="taxi" />
        <walk edges="1068735330#1 1068735330#0 18888058 72562012" arrivalPos="18.84" />
    </person>
    <person id="d765" depart="29495.27" departPos="random">
        <ride from="519913265#1" to="1050853710" arrivalPos="26.41" lines="taxi" />
        <walk edges="1050853710 -1050853709#1" arrivalPos="2.22" />
    </person>
    <person id="d491" depart="29555.92" departPos="random">
        <ride from="519913265#1" to="1050853710" arrivalPos="26.41" lines="taxi" />
        <walk edges="1050853710 -1050853709#1" arrivalPos="1.07" />
    </person>
    <person id="d814" depart="29586.04" departPos="random">
        <ride from="519913261#1" to="1050853710" arrivalPos="26.41" lines="taxi" />
        <walk edges="1050853710 -1050853709#1" arrivalPos="0.42" />
    </person>
    <person id="d502" depart="29600.84" departPos="random">
        <ride from="519913257#1" to="1050853710" arrivalPos="26.41" lines="taxi" />
        <walk edges="1050853710 -1050853709#1" arrivalPos="0.41" />
    </person>
    <person id="d645" depart="29653.00" departPos="random">
        <ride from="519913257#1" to="1050853710" arrivalPos="26.41" lines="taxi" />
        <walk edges="1050853710 -1050853709#1" arrivalPos="1.33" />
    </person>
    <person id="d550" depart="29663.89" departPos="random">
        <ride from="519913261#1" to="1050853710" arrivalPos="26.41" lines="taxi" />
        <walk edges="1050853710 -1050853709#1" arrivalPos="3.13" />
    </person>
    <person id="d226" depart="29670.35" departPos="random">
        <ride from="519913265#1" to="185833040#1" arrivalPos="15.53" lines="taxi" />
        <walk edges="185833040#1 185833040#2 664380228#1 -1219863760#1 1219863759 -209788015 1136239035#1 1136239035#0 182095936#1 1068735328#0 1068735328#1" arrivalPos="49.99" />
    </person>
    <person id="d1377" depart="29676.52" departPos="random">
        <ride from="519913257#1" to="-268146971#2" arrivalPos="37.39" lines="taxi" />
        <walk edges="-268146971#2 -268146971#3" arrivalPos="6.07" />
    </person>
    <person id="d625" depart="29682.65" departPos="random">
        <ride from="519913263#1" to="1050853710" arrivalPos="26.41" lines="taxi" />
        <walk edges="1050853710 -1050853709#1" arrivalPos="0.54" />
    </person>
    <person id="d1095" depart="29716.75" departPos="random">
        <ride from="519913263#1" to="-268146971#2" arrivalPos="37.39" lines="taxi" />
        <walk edges="-268146971#2 -268146971#3" arrivalPos="15.54" />
    </person>
    <person id="d1124" depart="29725.54" departPos="random">
        <ride from="519913257#1" to="-268146971#2" arrivalPos="37.39" lines="taxi" />
        <walk edges="-268146971#2 -268146971#3" arrivalPos="6.56" />
    </person>
    <person id="d1086" depart="29738.60" departPos="random">
        <ride from="519913265#1" to="740109140" arrivalPos="20.48" lines="taxi" />
        <walk edges="740109140" arrivalPos="54.85" />
    </person>
    <person id="d1068" depart="29755.37" departPos="random">
        <ride from="519913261#1" to="-210208895" arrivalPos="18.71" lines="taxi" />
        <walk edges="-210208895" arrivalPos="4.48" />
    </person>
    <person id="d709" depart="29771.72" departPos="random">
        <ride from="519913265#1" to="1050853710" arrivalPos="26.41" lines="taxi" />
        <walk edges="1050853710 -1050853709#1" arrivalPos="2.16" />
    </person>
    <person id="d1570" depart="29780.84" departPos="random">
        <ride from="519913263#1" to="-210208895" arrivalPos="18.71" lines="taxi" />
        <walk edges="-210208895" arrivalPos="36.05" />
    </person>
    <person id="d1463" depart="29792.58" departPos="random">
        <ride from="519913265#1" to="740109140" arrivalPos="20.48" lines="taxi" />
        <walk edges="740109140" arrivalPos="40.29" />
    </person>
    <person id="d612" depart="29800.58" departPos="random">
        <ride from="519913257#1" to="1050853710" arrivalPos="26.41" lines="taxi" />
        <walk edges="1050853710 -1050853709#1" arrivalPos="2.24" />
    </person>
    <person id="d1335" depart="29804.91" departPos="random">
        <ride from="519913263#1" to="-1113164891" arrivalPos="19.64" lines="taxi" />
        <walk edges="-1113164891 1041492060#1" arrivalPos="14.75" />
    </person>
    <person id="d1477" depart="29805.49" departPos="random">
        <ride from="519913261#1" to="-268146971#2" arrivalPos="37.39" lines="taxi" />
        <walk edges="-268146971#2 -268146971#3" arrivalPos="26.10" />
    </person>
    <person id="d885" depart="29852.45" departPos="random">
        <ride from="519913263#1" to="25412019" arrivalPos="14.90" lines="taxi" />
        <walk edges="25412019 25412020#0 152516783#4 152516783#3 152516783#2 152516783#1" arrivalPos="19.04" />
    </person>
    <person id="d244" depart="29880.92" departPos="random">
        <ride from="519913261#1" to="1068735330#1" arrivalPos="7.04" lines="taxi" />
        <walk edges="1068735330#1 1068735330#0 1068735329#2 -1068735329#0" arrivalPos="22.23" />
    </person>
    <person id="d1002" depart="29891.17" departPos="random">
        <ride from="519913265#1" to="740109140" arrivalPos="20.48" lines="taxi" />
        <walk edges="740109140" arrivalPos="39.20" />
    </person>
    <person id="d127" depart="29903.27" departPos="random">
        <ride from="519913261#1" to="209755663#3" arrivalPos="2.55" lines="taxi" />
        <walk edges="209755663#3 209755663#2 -209755663#0 1317098557 59637812#0 59637812#1 -59637812#2 -59637812#3 59637812#4 -59637812#5 59637812#7 -59637812#8 59637812#9 -59637812#10 -1086010084 -1086010083 -175833044#1 175833044#0 175833041 175833047#0 -175833047#1 -175833047#2 -175833043 -426408073 198123925#0 198123925#1" arrivalPos="17.95" />
    </person>
    <person id="d382" depart="29914.89" departPos="random">
        <ride from="519913261#1" to="-152517443#1" arrivalPos="83.45" lines="taxi" />
        <walk edges="-152517443#1 152517443#0" arrivalPos="37.75" />
    </person>
    <person id="d313" depart="29919.15" departPos="random">
        <ride from="519913257#1" to="-30952515#0" arrivalPos="6.12" lines="taxi" />
        <walk edges="-30952515#0 30952515#1" arrivalPos="0.04" />
    </person>
    <person id="d948" depart="29922.19" departPos="random">
        <ride from="519913265#1" to="740109140" arrivalPos="20.48" lines="taxi" />
        <walk edges="740109140" arrivalPos="43.36" />
    </person>
    <person id="d773" depart="29941.28" departPos="random">
        <ride from="519913257#1" to="1050853710" arrivalPos="26.41" lines="taxi" />
        <walk edges="1050853710 -1050853709#1" arrivalPos="0.49" />
    </person>
    <person id="d1532" depart="29945.86" departPos="random">
        <ride from="519913261#1" to="-210208895" arrivalPos="18.71" lines="taxi" />
        <walk edges="-210208895" arrivalPos="1.40" />
    </person>
    <person id="d1400" depart="29951.04" departPos="random">
        <ride from="519913265#1" to="-210208895" arrivalPos="18.71" lines="taxi" />
        <walk edges="-210208895" arrivalPos="14.05" />
    </person>
    <person id="d296" depart="29979.20" departPos="random">
        <ride from="519913261#1" to="170940321#0" arrivalPos="43.86" lines="taxi" />
        <walk edges="170940321#0 -170940321#1 170952324#5 219034871#0 219034871#1 -219034871#2 219034871#3" arrivalPos="5.10" />
    </person>
    <person id="d937" depart="30007.21" departPos="random">
        <ride from="519913263#1" to="-268146971#2" arrivalPos="37.39" lines="taxi" />
        <walk edges="-268146971#2 -268146971#3" arrivalPos="25.24" />
    </person>
    <person id="d753" depart="30016.18" departPos="random">
        <ride from="519913263#1" to="1050853710" arrivalPos="26.41" lines="taxi" />
        <walk edges="1050853710 -1050853709#1" arrivalPos="0.22" />
    </person>
    <person id="d70" depart="30029.13" departPos="random">
        <ride from="519913265#1" to="1426892794#3" arrivalPos="11.14" lines="taxi" />
        <walk edges="1426892794#3 71759543#0 -71759543#1 71759543#2 -71759543#3 522706570#0" arrivalPos="4.24" />
    </person>
    <person id="d1043" depart="30030.63" departPos="random">
        <ride from="519913265#1" to="-210208895" arrivalPos="18.71" lines="taxi" />
        <walk edges="-210208895" arrivalPos="49.99" />
    </person>
    <person id="d207" depart="30036.36" departPos="random">
        <ride from="519913261#1" to="1050853710" arrivalPos="26.41" lines="taxi" />
        <walk edges="1050853710 -1050853709#1" arrivalPos="1.02" />
    </person>
    <person id="d63" depart="30056.12" departPos="random">
        <ride from="519913261#1" to="175833048" arrivalPos="84.81" lines="taxi" />
        <walk edges="175833048 -307930214 1068735315#1 -1068735315#0" arrivalPos="10.55" />
    </person>
    <person id="d1104" depart="30091.77" departPos="random">
        <ride from="519913265#1" to="-268146971#2" arrivalPos="37.39" lines="taxi" />
        <walk edges="-268146971#2 -268146971#3" arrivalPos="2.34" />
    </person>
    <person id="d217" depart="30098.74" departPos="random">
        <ride from="519913261#1" to="1086005529" arrivalPos="102.22" lines="taxi" />
        <walk edges="1086005529" arrivalPos="74.81" />
    </person>
    <person id="d1159" depart="30104.34" departPos="random">
        <ride from="519913265#1" to="-1113164891" arrivalPos="19.64" lines="taxi" />
        <walk edges="-1113164891 1041492060#1" arrivalPos="3.27" />
    </person>
    <person id="d1320" depart="30106.42" departPos="random">
        <ride from="519913257#1" to="740109140" arrivalPos="20.48" lines="taxi" />
        <walk edges="740109140" arrivalPos="12.21" />
    </person>
    <person id="d1448" depart="30123.32" departPos="random">
        <ride from="519913265#1" to="-1113164891" arrivalPos="19.64" lines="taxi" />
        <walk edges="-1113164891 1041492060#1" arrivalPos="0.74" />
    </person>
    <person id="d1128" depart="30131.29" departPos="random">
        <ride from="519913257#1" to="-1113164891" arrivalPos="19.64" lines="taxi" />
        <walk edges="-1113164891 1041492060#1" arrivalPos="1.26" />
    </person>
    <person id="d123" depart="30159.91" departPos="random">
        <ride from="519913257#1" to="56240189#4" arrivalPos="23.74" lines="taxi" />
        <walk edges="56240189#4" arrivalPos="25.56" />
    </person>
    <person id="d935" depart="30178.96" departPos="random">
        <ride from="519913261#1" to="-1113164891" arrivalPos="19.64" lines="taxi" />
        <walk edges="-1113164891 1041492060#1" arrivalPos="5.55" />
    </person>
    <person id="d213" depart="30196.33" departPos="random">
        <ride from="519913263#1" to="18887954#0" arrivalPos="6.62" lines="taxi" />
        <walk edges="18887954#0 -31061888#1 31061889#0 31061889#2 -31061889#3 -31061889#4 186141915#0 -186141915#1 1430507283 -645951511#0 -1085798452 1085798452" arrivalPos="0.06" />
    </person>
    <person id="d118" depart="30199.14" departPos="random">
        <ride from="519913261#1" to="56240189#0" arrivalPos="27.49" lines="taxi" />
        <walk edges="56240189#0 1418170811 72561717#0 -72561717#1 72561717#2 72561717#3 72561717#4" arrivalPos="236.13" />
    </person>
    <person id="d838" depart="30205.02" departPos="random">
        <ride from="519913261#1" to="1050853710" arrivalPos="26.41" lines="taxi" />
        <walk edges="1050853710 -1050853709#1" arrivalPos="2.20" />
    </person>
    <person id="d136" depart="30205.95" departPos="random">
        <ride from="519913257#1" to="209755663#3" arrivalPos="2.55" lines="taxi" />
        <walk edges="209755663#3 -209755663#2" arrivalPos="22.08" />
    </person>
    <person id="d934" depart="30206.58" departPos="random">
        <ride from="519913265#1" to="-1113164891" arrivalPos="19.64" lines="taxi" />
        <walk edges="-1113164891 1041492060#1" arrivalPos="9.70" />
    </person>
    <person id="d822" depart="30207.38" departPos="random">
        <ride from="519913263#1" to="1050853710" arrivalPos="26.41" lines="taxi" />
        <walk edges="1050853710 -1050853709#1" arrivalPos="1.26" />
    </person>
    <person id="d413" depart="30301.16" departPos="random">
        <ride from="519913263#1" to="1115020158" arrivalPos="73.33" lines="taxi" />
        <walk edges="1115020158 25303488#0" arrivalPos="115.36" />
    </person>
    <person id="d496" depart="30351.54" departPos="random">
        <ride from="519913261#1" to="1050853710" arrivalPos="26.41" lines="taxi" />
        <walk edges="1050853710 -1050853709#1" arrivalPos="2.67" />
    </person>
    <person id="d784" depart="30388.81" departPos="random">
        <ride from="519913263#1" to="1050853710" arrivalPos="26.41" lines="taxi" />
        <walk edges="1050853710 -1050853709#1" arrivalPos="1.90" />
    </person>
    <person id="d144" depart="30393.62" departPos="random">
        <ride from="519913261#1" to="209755663#3" arrivalPos="2.55" lines="taxi" />
        <walk edges="209755663#3 209755663#2 -209755663#0 1317098557 59637812#0 59637812#1 -59637812#2 -59637812#3 59637812#4 -59637812#5 59637812#7 -59637812#8 59637812#9 -59637812#10 -1086010084 -1086010083 -175833044#1 175833044#0 175833041 241932762#4 241932762#3 -241932762#2 241932762#1 241932762#0 -426408082#1 426408082#0 -426408076#5 426408076#4 426408076#3 -426408076#2" arrivalPos="154.96" />
    </person>
    <person id="d979" depart="30395.86" departPos="random">
        <ride from="519913257#1" to="-210208895" arrivalPos="18.71" lines="taxi" />
        <walk edges="-210208895" arrivalPos="18.40" />
    </person>
    <person id="d375" depart="30414.82" departPos="random">
        <ride from="519913261#1" to="-819942944#4" arrivalPos="39.13" lines="taxi" />
        <walk edges="-819942944#4 819945211 -1467922383 819945209 25303490 1068735336#0 -1068735336#1 -1068735336#2 1068735336#3" arrivalPos="119.37" />
    </person>
    <person id="d1154" depart="30421.89" departPos="random">
        <ride from="519913263#1" to="740109140" arrivalPos="20.48" lines="taxi" />
        <walk edges="740109140" arrivalPos="1.61" />
    </person>
    <person id="d186" depart="30452.57" departPos="random">
        <ride from="519913257#1" to="209755663#3" arrivalPos="2.55" lines="taxi" />
        <walk edges="209755663#3 209755663#2 -209755663#0 1317098557 59637812#0 59637812#1 -59637812#2 -59637812#3 59637812#4 -59637812#5 59637812#7" arrivalPos="22.62" />
    </person>
    <person id="d1356" depart="30474.79" departPos="random">
        <ride from="519913265#1" to="740109140" arrivalPos="20.48" lines="taxi" />
        <walk edges="740109140" arrivalPos="7.08" />
    </person>
    <person id="d888" depart="30475.81" departPos="random">
        <ride from="519913263#1" to="-268146971#2" arrivalPos="37.39" lines="taxi" />
        <walk edges="-268146971#2 -268146971#3" arrivalPos="23.81" />
    </person>
    <person id="d640" depart="30493.20" departPos="random">
        <ride from="519913265#1" to="1050853710" arrivalPos="26.41" lines="taxi" />
        <walk edges="1050853710 -1050853709#1" arrivalPos="2.03" />
    </person>
    <person id="d693" depart="30495.71" departPos="random">
        <ride from="519913263#1" to="1050853710" arrivalPos="26.41" lines="taxi" />
        <walk edges="1050853710 -1050853709#1" arrivalPos="3.00" />
    </person>
    <person id="d266" depart="30534.61" departPos="random">
        <ride from="519913257#1" to="1068735330#1" arrivalPos="7.04" lines="taxi" />
        <walk edges="1068735330#1 30952483#0 -30952483#1 30952490#0 -30952523#0 -30952523#1 30952496#0" arrivalPos="8.99" />
    </person>
    <person id="d397" depart="30535.93" departPos="random">
        <ride from="519913261#1" to="-30050433#2" arrivalPos="38.69" lines="taxi" />
        <walk edges="-30050433#2 -30050433#1 30050433#0 -96461184#1" arrivalPos="46.37" />
    </person>
    <person id="d1496" depart="30538.56" departPos="random">
        <ride from="519913257#1" to="-268146971#2" arrivalPos="37.39" lines="taxi" />
        <walk edges="-268146971#2 -268146971#3" arrivalPos="19.33" />
    </person>
    <person id="d1502" depart="30539.65" departPos="random">
        <ride from="519913263#1" to="740109140" arrivalPos="20.48" lines="taxi" />
        <walk edges="740109140" arrivalPos="30.80" />
    </person>
    <person id="d25" depart="30552.65" departPos="random">
        <ride from="519913263#1" to="-1083351550#0" arrivalPos="16.69" lines="taxi" />
        <walk edges="-1083351550#0 -1083351550#1 1083276371#0 -1083276371#1 -1083276371#2 120840219#0 -120840219#1" arrivalPos="72.41" />
    </person>
    <person id="d1256" depart="30552.71" departPos="random">
        <ride from="519913261#1" to="-210208895" arrivalPos="18.71" lines="taxi" />
        <walk edges="-210208895" arrivalPos="28.90" />
    </person>
    <person id="d1331" depart="30595.75" departPos="random">
        <ride from="519913265#1" to="-268146971#2" arrivalPos="37.39" lines="taxi" />
        <walk edges="-268146971#2 -268146971#3" arrivalPos="26.41" />
    </person>
    <person id="d178" depart="30610.52" departPos="random">
        <ride from="519913263#1" to="256959704#2" arrivalPos="7.50" lines="taxi" />
        <walk edges="256959704#2 -256959704#0 -209755663#4" arrivalPos="15.01" />
    </person>
    <person id="d159" depart="30628.28" departPos="random">
        <ride from="519913261#1" to="209755663#3" arrivalPos="2.55" lines="taxi" />
        <walk edges="209755663#3 209755663#2 -209755663#0 1317098557" arrivalPos="2.70" />
    </person>
    <person id="d1380" depart="30633.34" departPos="random">
        <ride from="519913263#1" to="-210208895" arrivalPos="18.71" lines="taxi" />
        <walk edges="-210208895" arrivalPos="17.27" />
    </person>
    <person id="d1433" depart="30644.08" departPos="random">
        <ride from="519913265#1" to="-268146971#2" arrivalPos="37.39" lines="taxi" />
        <walk edges="-268146971#2 -268146971#3" arrivalPos="19.02" />
    </person>
    <person id="d1076" depart="30644.15" departPos="random">
        <ride from="519913257#1" to="-1113164891" arrivalPos="19.64" lines="taxi" />
        <walk edges="-1113164891 1041492060#1" arrivalPos="1.60" />
    </person>
    <person id="d108" depart="30649.67" departPos="random">
        <ride from="519913263#1" to="209755663#3" arrivalPos="2.55" lines="taxi" />
        <walk edges="209755663#3 209755663#2 -209755663#0 1317098557 59637812#0 59637812#1 -59637812#2 -59637812#3 59637812#4 -59637812#5 59637812#7 -59637812#8 -59637812#9" arrivalPos="174.29" />
    </person>
    <person id="d508" depart="30673.22" departPos="random">
        <ride from="519913263#1" to="1050853710" arrivalPos="26.41" lines="taxi" />
        <walk edges="1050853710 -1050853709#1" arrivalPos="2.14" />
    </person>
    <person id="d768" depart="30698.54" departPos="random">
        <ride from="519913263#1" to="1050853710" arrivalPos="26.41" lines="taxi" />
        <walk edges="1050853710 -1050853709#1" arrivalPos="2.53" />
    </person>
    <person id="d1508" depart="30760.06" departPos="random">
        <ride from="519913263#1" to="-268146971#2" arrivalPos="37.39" lines="taxi" />
        <walk edges="-268146971#2 -268146971#3" arrivalPos="7.65" />
    </person>
    <person id="d411" depart="30760.62" departPos="random">
        <ride from="519913265#1" to="25412019" arrivalPos="14.90" lines="taxi" />
        <walk edges="25412019 152337236#1 1005052428#1" arrivalPos="11.48" />
    </person>
    <person id="d954" depart="30774.00" departPos="random">
        <ride from="519913257#1" to="25412019" arrivalPos="14.90" lines="taxi" />
        <walk edges="25412019 25412020#0 152516783#4 152516783#3 152516783#2 152516783#1" arrivalPos="7.69" />
    </person>
    <person id="d897" depart="30802.43" departPos="random">
        <ride from="519913265#1" to="-210208895" arrivalPos="18.71" lines="taxi" />
        <walk edges="-210208895" arrivalPos="35.93" />
    </person>
    <person id="d632" depart="30804.99" departPos="random">
        <ride from="519913265#1" to="1050853710" arrivalPos="26.41" lines="taxi" />
        <walk edges="1050853710 -1050853709#1" arrivalPos="0.46" />
    </person>
    <person id="d817" depart="30805.96" departPos="random">
        <ride from="519913257#1" to="1050853710" arrivalPos="26.41" lines="taxi" />
        <walk edges="1050853710 -1050853709#1" arrivalPos="2.86" />
    </person>
    <person id="d518" depart="30848.98" departPos="random">
        <ride from="519913263#1" to="1050853710" arrivalPos="26.41" lines="taxi" />
        <walk edges="1050853710 -1050853709#1" arrivalPos="1.20" />
    </person>
    <person id="d1559" depart="30851.14" departPos="random">
        <ride from="519913261#1" to="-1113164891" arrivalPos="19.64" lines="taxi" />
        <walk edges="-1113164891 1041492060#1" arrivalPos="7.57" />
    </person>
    <person id="d564" depart="30852.80" departPos="random">
        <ride from="519913257#1" to="1050853710" arrivalPos="26.41" lines="taxi" />
        <walk edges="1050853710 -1050853709#1" arrivalPos="0.14" />
    </person>
    <person id="d824" depart="30880.92" departPos="random">
        <ride from="519913261#1" to="1050853710" arrivalPos="26.41" lines="taxi" />
        <walk edges="1050853710 -1050853709#1" arrivalPos="1.27" />
    </person>
    <person id="d1129" depart="30882.44" departPos="random">
        <ride from="519913263#1" to="-268146971#2" arrivalPos="37.39" lines="taxi" />
        <walk edges="-268146971#2 -268146971#3" arrivalPos="18.36" />
    </person>
    <person id="d830" depart="30897.41" departPos="random">
        <ride from="519913265#1" to="1050853710" arrivalPos="26.41" lines="taxi" />
        <walk edges="1050853710 -1050853709#1" arrivalPos="3.17" />
    </person>
    <person id="d27" depart="30916.75" departPos="random">