<routes xmlns:xsi="http://www.w3.org/2001/XMLSchema-instance" xsi:noNamespaceSchemaLocation="http://sumo.dlr.de/xsd/routes_file.xsd">
    <person id="611" depart="28833.54" departPos="random">
        <walk edges="519913263#1 519913263#0 897592613 519913261#0 519913261#1" busStop="193.TA.92-1-N-j24-1.77.H.0" /> 
        <ride busStop="1323.TA.92-1-N-j24-1.88.H.15" lines="660.TA.92-1-N-j24-1.81.H" intended="736.TA.92-1-N-j24-1.81.H.0" depart="29090.00" /> 
        <walk edges="819942944#3 -819942944#4 819945211 -1467922383 819945210#0 41595601#0 -41595601#2 41595601#3 41595601#4 -41595601#5 152337236#1 25412019" busStop="270.TA.92-10-J-j24-1.4.H.10" /> 
        <ride busStop="1323.TA.92-1-N-j24-1.88.H.26" lines="37.TA.92-2-L-j24-1.2.H" intended="37.TA.92-2-L-j24-1.2.H.0" depart="29390.00" /> 
        <ride busStop="1406.TA.92-1-N-j24-1.89.H.29" lines="660.TA.92-1-N-j24-1.81.H" intended="736.TA.92-1-N-j24-1.81.H.0" depart="30110.00" /> 
        <walk edges="1050853710 -1050853709#1" arrivalPos="2.89" />
    </person>
    <person id="743" depart="28836.64" departPos="random">
        <walk edges="519913263#1 519913263#0 897592613 519913261#0 519913261#1" busStop="193.TA.92-1-N-j24-1.77.H.0" /> 
        <ride busStop="1323.TA.92-1-N-j24-1.88.H.15" lines="660.TA.92-1-N-j24-1.81.H" intended="736.TA.92-1-N-j24-1.81.H.0" depart="29090.00" /> 
        <walk edges="819942944#3 -819942944#4 819945211 -1467922383 819945210#0 41595601#0 -41595601#2 41595601#3 41595601#4 -41595601#5 152337236#1 25412019" busStop="270.TA.92-10-J-j24-1.4.H.10" /> 
        <ride busStop="1323.TA.92-1-N-j24-1.88.H.26" lines="37.TA.92-2-L-j24-1.2.H" intended="37.TA.92-2-L-j24-1.2.H.0" depart="29390.00" /> 
        <ride busStop="1406.TA.92-1-N-j24-1.89.H.29" lines="660.TA.92-1-N-j24-1.81.H" intended="736.TA.92-1-N-j24-1.81.H.0" depart="30110.00" /> 
        <walk edges="1050853710 -1050853709#1" arrivalPos="2.31" />
    </person>
    <person id="1046" depart="28863.18" departPos="random">
        <walk edges="519913263#1" busStop="1323.TA.92-1-N-j24-1.88.H.14" /> 
        <ride busStop="1323.TA.92-1-N-j24-1.88.H.23" lines="1003.TA.92-9-H-j24-1.10.H" intended="630.TA.92-9-H-j24-1.10.H.0" depart="29090.00" /> 
        <walk edges="-170952324#1 170952324#0 19724261 769993301#0 769993301#1 769993301#2 268146971#0 -268146971#1 -268146971#2 -268146971#3" arrivalPos="1.24" />
    </person>
    <person id="1398" depart="28866.73" departPos="random">
        <walk edges="519913265#1 519913265#0 120840710 897592613 519913261#0 519913261#1" busStop="193.TA.92-1-N-j24-1.77.H.0" /> 
        <ride busStop="1323.TA.92-1-N-j24-1.88.H.15" lines="660.TA.92-1-N-j24-1.81.H" intended="736.TA.92-1-N-j24-1.81.H.0" depart="29090.00" /> 
        <walk edges="819942944#3 -819942944#4 819945211 -1467922383 819945210#0 41595601#0 -41595601#2 41595601#3 41595601#4 -41595601#5 -1005052428#1 -1005052428#2 819942942#0 152390930#1 -1005048061#2 1005048061#1 -1005048061#0 1005048062#1 -578147406 -268146940#2 39830434#0 39830434#1 -39830434#2 -391952926#3 391952926#2 391952926#1 -1115015077#2 1115015077#1 1115015078#3 -1115015078#2 -1115015078#1 1115015078#0 -268152262#6 -268152262#5 268152262#4 268152262#3 -268152262#2 268152262#1 -1115015079#3 1115015079#2 -210208895" arrivalPos="24.76" />
    </person>
    <person id="1333" depart="28873.44" departPos="random">
        <walk edges="519913265#1 519913265#0 120840710 897592613 519913261#0 519913261#1" busStop="193.TA.92-1-N-j24-1.77.H.0" /> 
        <ride busStop="1323.TA.92-1-N-j24-1.88.H.15" lines="660.TA.92-1-N-j24-1.81.H" intended="736.TA.92-1-N-j24-1.81.H.0" depart="29090.00" /> 
        <walk edges="819942944#3 -819942944#4 819945211 -1467922383 819945210#0 41595601#0 -41595601#2 41595601#3 41595601#4 -41595601#5 -1005052428#1 -1005052428#2 819942942#0 152390930#1 -1005048061#2 1005048061#1 -1005048061#0 1005048062#1 -578147406 -268146940#2 39830434#0 39830434#1 -39830434#2 -391952926#3 391952926#2 391952926#1 -1115015077#2 1115015077#1 1115015078#3 -1115015078#2 -1115015078#1 1115015078#0 -268152262#6 -268152262#5 268152262#4 268152262#3 -268152262#2 268152262#1 -1115015079#3 1115015079#2 -210208895" arrivalPos="29.72" />
    </person>
    <person id="167" depart="28888.60" departPos="random">
        <walk edges="519913263#1 519913263#0 897592613 519913261#0 519913261#1" busStop="193.TA.92-1-N-j24-1.77.H.0" /> 
        <ride busStop="1323.TA.92-1-N-j24-1.88.H.15" lines="660.TA.92-1-N-j24-1.81.H" intended="736.TA.92-1-N-j24-1.81.H.0" depart="29090.00" /> 
        <walk edges="819942944#3 -819942944#4 819945211 -1467922383 819945210#0 41595601#0 -41595601#2 41595601#3 41595601#4 -41595601#5 152337236#1 25412019" busStop="270.TA.92-10-J-j24-1.4.H.10" /> 
        <ride busStop="506.TA.92-10-J-j24-1.71.H.27" lines="37.TA.92-2-L-j24-1.2.H" intended="37.TA.92-2-L-j24-1.2.H.0" depart="29390.00" /> 
        <ride busStop="506.TA.92-10-J-j24-1.71.H.31" lines="20.TA.96-290-0-j24-1.10.H" intended="26.TA.96-290-0-j24-1.10.H.0" depart="30410.00" /> 
        <walk edges="-56240189#0 56240189#2 -56240189#3 1212211274 -1374474693" arrivalPos="4.34" />
    </person>
    <person id="823" depart="28892.51" departPos="random">
        <walk edges="519913265#1 519913265#0 120840710 897592613 519913261#0 519913261#1" busStop="193.TA.92-1-N-j24-1.77.H.0" /> 
        <ride busStop="1323.TA.92-1-N-j24-1.88.H.15" lines="660.TA.92-1-N-j24-1.81.H" intended="736.TA.92-1-N-j24-1.81.H.0" depart="29090.00" /> 
        <walk edges="819942944#3 -819942944#4 819945211 -1467922383 819945210#0 41595601#0 -41595601#2 41595601#3 41595601#4 -41595601#5 152337236#1 25412019" busStop="270.TA.92-10-J-j24-1.4.H.10" /> 
        <ride busStop="1323.TA.92-1-N-j24-1.88.H.26" lines="37.TA.92-2-L-j24-1.2.H" intended="37.TA.92-2-L-j24-1.2.H.0" depart="29390.00" /> 
        <ride busStop="1406.TA.92-1-N-j24-1.89.H.29" lines="660.TA.92-1-N-j24-1.81.H" intended="736.TA.92-1-N-j24-1.81.H.0" depart="30110.00" /> 
        <walk edges="1050853710 -1050853709#1" arrivalPos="2.41" />
    </person>
    <person id="880" depart="28895.19" departPos="random">
        <walk edges="519913265#1 519913265#0 120840710 519913263#0 519913263#1" busStop="1323.TA.92-1-N-j24-1.88.H.14" /> 
        <ride busStop="1323.TA.92-1-N-j24-1.88.H.23" lines="1003.TA.92-9-H-j24-1.10.H" intended="630.TA.92-9-H-j24-1.10.H.0" depart="29090.00" /> 
        <walk edges="-170952324#1 170952324#0 19724261 769993301#0 769993301#1 769993301#2 268146971#0 -268146971#1 -268146971#2 -268146971#3" arrivalPos="6.73" />
    </person>
    <person id="1130" depart="28914.32" departPos="random">
        <walk edges="519913265#1 519913265#0 120840710 897592613 519913261#0 519913261#1" busStop="193.TA.92-1-N-j24-1.77.H.0" /> 
        <ride busStop="1323.TA.92-1-N-j24-1.88.H.15" lines="660.TA.92-1-N-j24-1.81.H" intended="736.TA.92-1-N-j24-1.81.H.0" depart="29090.00" /> 
        <walk edges="819942944#3 -819942944#4 819945211 -1467922383 819945210#0 41595601#0 -41595601#2 41595601#3 41595601#4 -41595601#5 -1005052428#1 -1005052428#2 819942942#0 152390930#1 -1005048061#2 1005048061#1 -1005048061#0 1005048062#1 -578147406 -268146940#2 39830434#0 39830434#1 -39830434#2 -391952926#3 391952926#2 391952926#1 -1115015077#2 1115015077#1 1115015078#3 -1115015078#2 -1115015078#1 1115015078#0 -268152262#6 -268152262#5 268152262#4 268152262#3 -268152262#2 268152262#1 -1115015079#3 1115015079#2 -1115015079#0 1115015083 1041492060#1" arrivalPos="8.60" />
    </person>
    <person id="53" depart="28921.78" departPos="random">
        <walk edges="519913257#1 519913257#0 -904728442 519913261#0 519913261#1" busStop="193.TA.92-1-N-j24-1.77.H.0" /> 
        <ride busStop="1323.TA.92-1-N-j24-1.88.H.15" lines="660.TA.92-1-N-j24-1.81.H" intended="736.TA.92-1-N-j24-1.81.H.0" depart="29090.00" /> 
        <walk edges="819942944#3 -819942944#4 819945211 -1467922383 819945210#0 41595601#0 -41595601#2 41595601#3 41595601#4 -41595601#5 152337236#1 25412019" busStop="270.TA.92-10-J-j24-1.4.H.10" /> 
        <ride busStop="506.TA.92-10-J-j24-1.71.H.27" lines="37.TA.92-2-L-j24-1.2.H" intended="37.TA.92-2-L-j24-1.2.H.0" depart="29390.00" /> 
        <ride busStop="16.TA.96-290-0-j24-1.26.H.14" lines="20.TA.96-290-0-j24-1.10.H" intended="26.TA.96-290-0-j24-1.10.H.0" depart="30410.00" /> 
        <walk edges="-502426851#0 -391657350#0" arrivalPos="200.89" />
    </person>
    <person id="924" depart="28925.00" departPos="random">
        <walk edges="519913265#1 519913265#0 120840710 897592613 519913261#0 519913261#1" busStop="193.TA.92-1-N-j24-1.77.H.0" /> 
        <ride busStop="1323.TA.92-1-N-j24-1.88.H.15" lines="660.TA.92-1-N-j24-1.81.H" intended="736.TA.92-1-N-j24-1.81.H.0" depart="29090.00" /> 
        <walk edges="819942944#3 -819942944#4 819945211 -1467922383 819945210#0 41595601#0 -41595601#2 41595601#3 41595601#4 -41595601#5 -1005052428#1 -1005052428#2 819942942#0 152390930#1 -1005048061#2 1005048061#1 -1005048061#0 1005048062#1 -578147406 -268146940#2 39830434#0 39830434#1 -39830434#2 -391952926#3 391952926#2 391952926#1 -1115015077#2 1115015077#1 1115015078#3 -1115015078#2 -1115015078#1 1115015078#0 -268152262#6 -268152262#5 268152262#4 268152262#3 -268152262#2 268152262#1 -1115015079#3 1115015079#2 -210208895" arrivalPos="0.30" />
    </person>
    <person id="327" depart="28930.11" departPos="random">
        <walk edges="519913263#1 519913263#0 897592613 519913261#0 519913261#1" busStop="193.TA.92-1-N-j24-1.77.H.0" /> 
        <ride busStop="1323.TA.92-1-N-j24-1.88.H.15" lines="660.TA.92-1-N-j24-1.81.H" intended="736.TA.92-1-N-j24-1.81.H.0" depart="29090.00" /> 
        <walk edges="819942944#3 -819942944#4 819945211 -1467922383 819945210#0 41595601#0 -41595601#2 41595601#3 41595601#4 -41595601#5 -1005052428#1 -1005052428#2 819942942#0 152390930#1 -1005048061#2 1005048061#1 -1005048061#0 1005048062#1 -578147406 -268146940#2 39830434#0 39830434#1 -39830434#2 -391952926#3 391952926#2 391952926#1 -1115015077#2 1115015077#1 1115015078#3 -1115015078#2 -1115015078#1 1115015078#0 -268152262#6 -268152262#5 268152262#4 268152262#3 -268152262#2 268152262#1 -1115015079#3 1115015079#2 -1115015079#0 1115015083 1004933332#1" arrivalPos="13.29" />
    </person>
    <person id="1526" depart="28975.40" departPos="random">
        <walk edges="519913263#1 519913263#0 897592613 519913261#0 519913261#1" busStop="193.TA.92-1-N-j24-1.77.H.0" /> 
        <ride busStop="1323.TA.92-1-N-j24-1.88.H.15" lines="660.TA.92-1-N-j24-1.81.H" intended="736.TA.92-1-N-j24-1.81.H.0" depart="29090.00" /> 
        <walk edges="819942944#3 -819942944#4 819945211 -1467922383 819945210#0 41595601#0 -41595601#2 41595601#3 41595601#4 -41595601#5 152337236#1 25412019" busStop="270.TA.92-10-J-j24-1.4.H.10" /> 
        <ride busStop="1004.TA.92-2-L-j24-1.15.H.13" lines="37.TA.92-2-L-j24-1.2.H" intended="37.TA.92-2-L-j24-1.2.H.0" depart="29390.00" /> 
        <walk edges="25303488#4 1068735334 69347933#0 -69347933#1 -188730896#0 -188730896#1 -188730896#2 188730896#3 -188730896#4 188730896#5 -188730896#6 740109140" arrivalPos="31.50" />
    </person>
    <person id="211" depart="29010.76" departPos="random">
        <walk edges="519913257#1 519913257#0 -904728442 519913261#0 519913261#1" busStop="193.TA.92-1-N-j24-1.77.H.0" /> 
        <ride busStop="1323.TA.92-1-N-j24-1.88.H.15" lines="660.TA.92-1-N-j24-1.81.H" intended="736.TA.92-1-N-j24-1.81.H.0" depart="29090.00" /> 
        <walk edges="819942944#3 -819942944#4 819945211 -1467922383 819945210#0 41595601#0 -41595601#2 41595601#3 41595601#4 -41595601#5 152337236#1 25412019" busStop="270.TA.92-10-J-j24-1.4.H.10" /> 
        <ride busStop="1323.TA.92-1-N-j24-1.88.H.26" lines="37.TA.92-2-L-j24-1.2.H" intended="37.TA.92-2-L-j24-1.2.H.0" depart="29390.00" /> 
        <walk edges="1086005529 14014136#0 1086005528 -1086005527#0 -147218475#0 147218475#2 -116715858 -31061888#1 31061889#0 31061889#2 -31061889#3 -31061889#4 186141915#0 -186141915#1 1430507283" arrivalPos="14.95" />
    </person>
    <person id="1474" depart="29016.05" departPos="random">
        <walk edges="519913265#1 519913265#0 120840710 897592613 519913261#0 519913261#1" busStop="193.TA.92-1-N-j24-1.77.H.0" /> 
        <ride busStop="1323.TA.92-1-N-j24-1.88.H.15" lines="660.TA.92-1-N-j24-1.81.H" intended="736.TA.92-1-N-j24-1.81.H.0" depart="29090.00" /> 
        <walk edges="819942944#3 -819942944#4 819945211 -1467922383 819945210#0 41595601#0 -41595601#2 41595601#3 41595601#4 -41595601#5 -1005052428#1 -1005052428#2 819942942#0 152390930#1 -1005048061#2 1005048061#1 -1005048061#0 1005048062#1 -578147406 -268146940#2 39830434#0 39830434#1 -39830434#2 -391952926#3 391952926#2 391952926#1 -1115015077#2 1115015077#1 1115015078#3 -1115015078#2 -1115015078#1 1115015078#0 -268152262#6 -268152262#5 268152262#4 268152262#3 -268152262#2 268152262#1 -1115015079#3 1115015079#2 -210208895" arrivalPos="28.53" />
    </person>
    <person id="1511" depart="29024.98" departPos="random">
        <walk edges="519913263#1 519913263#0 897592613 519913261#0 519913261#1" busStop="193.TA.92-1-N-j24-1.77.H.0" /> 
        <ride busStop="1323.TA.92-1-N-j24-1.88.H.15" lines="660.TA.92-1-N-j24-1.81.H" intended="736.TA.92-1-N-j24-1.81.H.0" depart="29090.00" /> 
        <walk edges="819942944#3 -819942944#4 819945211 -1467922383 819945210#0 41595601#0 -41595601#2 41595601#3 41595601#4 -41595601#5 152337236#1 25412019" busStop="270.TA.92-10-J-j24-1.4.H.10" /> 
        <ride busStop="1004.TA.92-2-L-j24-1.15.H.13" lines="37.TA.92-2-L-j24-1.2.H" intended="37.TA.92-2-L-j24-1.2.H.0" depart="29390.00" /> 
        <walk edges="25303488#4 1068735334 69347933#0 -69347933#1 -188730896#0 -188730896#1 -188730896#2 188730896#3 -188730896#4 188730896#5 -188730896#6 740109140" arrivalPos="17.88" />
    </person>
    <person id="1059" depart="29042.15" departPos="random">
        <walk edges="519913265#1 519913265#0 120840710 897592613 519913261#0 519913261#1" busStop="193.TA.92-1-N-j24-1.77.H.0" /> 
        <ride busStop="1323.TA.92-1-N-j24-1.88.H.15" lines="660.TA.92-1-N-j24-1.81.H" intended="736.TA.92-1-N-j24-1.81.H.0" depart="29090.00" /> 
        <walk edges="819942944#3 -819942944#4 819945211 -1467922383 819945210#0 41595601#0 -41595601#2 41595601#3 41595601#4 -41595601#5 -1005052428#1 -1005052428#2 819942942#0 152390930#1 -1005048061#2 1005048061#1 -1005048061#0 1005048062#1 -578147406 -268146940#2 39830434#0 39830434#1 -39830434#2 -391952926#3 391952926#2 391952926#1 -1115015077#2 1115015077#1 1115015078#3 -1115015078#2 -1115015078#1 1115015078#0 -268152262#6 -268152262#5 268152262#4 268152262#3 -268152262#2 268152262#1 -1115015079#3 1115015079#2 -1115015079#0 1115015083 1041492060#1" arrivalPos="0.95" />
    </person>
    <person id="836" depart="29065.27" departPos="random">
        <walk edges="519913261#1" busStop="193.TA.92-1-N-j24-1.77.H.0" /> 
        <ride busStop="1323.TA.92-1-N-j24-1.88.H.15" lines="660.TA.92-1-N-j24-1.81.H" intended="736.TA.92-1-N-j24-1.81.H.0" depart="29090.00" /> 
        <walk edges="819942944#3 -819942944#4 819945211 -1467922383 819945210#0 41595601#0 -41595601#2 41595601#3 41595601#4 -41595601#5 152337236#1 25412019" busStop="270.TA.92-10-J-j24-1.4.H.10" /> 
        <ride busStop="1323.TA.92-1-N-j24-1.88.H.26" lines="37.TA.92-2-L-j24-1.2.H" intended="37.TA.92-2-L-j24-1.2.H.0" depart="29390.00" /> 
        <ride busStop="1406.TA.92-1-N-j24-1.89.H.29" lines="660.TA.92-1-N-j24-1.81.H" intended="736.TA.92-1-N-j24-1.81.H.0" depart="30110.00" /> 
        <walk edges="1050853710 -1050853709#1" arrivalPos="2.84" />
    </person>
    <person id="560" depart="29078.45" departPos="random">
        <walk edges="519913265#1 519913265#0 120840710 519913263#0 519913263#1" busStop="1323.TA.92-1-N-j24-1.88.H.14" /> 
        <ride busStop="1323.TA.92-1-N-j24-1.88.H.26" lines="20.TA.96-290-0-j24-1.10.H" intended="26.TA.96-290-0-j24-1.10.H.0" depart="29690.00" /> 
        <ride busStop="1406.TA.92-1-N-j24-1.89.H.29" lines="29.TA.92-20-E-j24-1.1.H" intended="40.TA.92-20-E-j24-1.1.H.0" depart="30530.00" /> 
        <walk edges="1050853710 -1050853709#1" arrivalPos="1.04" />
    </person>
    <person id="964" depart="29084.35" departPos="random">
        <walk edges="519913261#1 519913261#0 -897592613 -120840710 -903531446 -120840712#0 -47578286 1068735342#0 1068735342#1 -819942945#0 819942945#2 1068735337 -152520535 819942944#2 819942944#3 -819942944#4 819945211 -1467922383 819945209 -152517443#2 -152517443#1" busStop="1323.TA.92-1-N-j24-1.88.H.17" /> 
        <ride busStop="1323.TA.92-1-N-j24-1.88.H.23" lines="1793.TA.92-6-I-j24-1.11.H" intended="1851.TA.92-6-I-j24-1.11.H.0" depart="29930.00" /> 
        <walk edges="-170952324#1 170952324#0 19724261 769993301#0 769993301#1 769993301#2 268146971#0 -268146971#1 -268146971#2 -268146971#3" arrivalPos="18.59" />
    </person>
    <person id="876" depart="29102.63" departPos="random">
        <walk edges="519913263#1 519913263#0 -120840710 -903531446 -120840712#0 -47578286 1068735342#0 1068735342#1 -819942945#0 819942945#2 1068735337 -152520535 819942944#2 819942944#3 -819942944#4 819945211 -1467922383 819945209 -152517443#2 -152517443#1" busStop="1323.TA.92-1-N-j24-1.88.H.17" /> 
        <ride busStop="1323.TA.92-1-N-j24-1.88.H.23" lines="1793.TA.92-6-I-j24-1.11.H" intended="1851.TA.92-6-I-j24-1.11.H.0" depart="29930.00" /> 
        <walk edges="-170952324#1 170952324#0 19724261 769993301#0 769993301#1 769993301#2 268146971#0 -268146971#1 -268146971#2 -268146971#3" arrivalPos="13.95" />
    </person>
    <person id="86" depart="29122.82" departPos="random">
        <walk edges="519913263#1" busStop="1323.TA.92-1-N-j24-1.88.H.14" /> 
        <ride busStop="19.TA.96-290-0-j24-1.32.H.33" lines="20.TA.96-290-0-j24-1.10.H" intended="26.TA.96-290-0-j24-1.10.H.0" depart="29690.00" /> 
        <walk edges="365973802 -1162538599#0" arrivalPos="29.45" />
    </person>
    <person id="527" depart="29140.80" departPos="random">
        <walk edges="519913263#1" busStop="1323.TA.92-1-N-j24-1.88.H.14" /> 
        <ride busStop="1323.TA.92-1-N-j24-1.88.H.26" lines="20.TA.96-290-0-j24-1.10.H" intended="26.TA.96-290-0-j24-1.10.H.0" depart="29690.00" /> 
        <ride busStop="1406.TA.92-1-N-j24-1.89.H.29" lines="29.TA.92-20-E-j24-1.1.H" intended="40.TA.92-20-E-j24-1.1.H.0" depart="30530.00" /> 
        <walk edges="1050853710 -1050853709#1" arrivalPos="2.67" />
    </person>
    <person id="507" depart="29142.66" departPos="random">
        <walk edges="519913261#1 519913261#0 -897592613 519913263#0 519913263#1" busStop="1323.TA.92-1-N-j24-1.88.H.14" /> 
        <ride busStop="1323.TA.92-1-N-j24-1.88.H.26" lines="20.TA.96-290-0-j24-1.10.H" intended="26.TA.96-290-0-j24-1.10.H.0" depart="29690.00" /> 
        <ride busStop="1406.TA.92-1-N-j24-1.89.H.29" lines="29.TA.92-20-E-j24-1.1.H" intended="40.TA.92-20-E-j24-1.1.H.0" depart="30530.00" /> 
        <walk edges="1050853710 -1050853709#1" arrivalPos="2.88" />
    </person>
    <person id="1153" depart="29264.31" departPos="random">
        <walk edges="519913263#1" busStop="1323.TA.92-1-N-j24-1.88.H.14" /> 
        <ride busStop="506.TA.92-10-J-j24-1.71.H.21" lines="20.TA.96-290-0-j24-1.10.H" intended="26.TA.96-290-0-j24-1.10.H.0" depart="29690.00" /> 
        <walk edges="-1068735330#1 -1068735330#2 1068735330#4 -1068735330#5 -209049905#0 1068735332#3 -191253662#7 191253662#6 191253662#5 -191253662#4 191253662#3 -191253662#2 191253662#1 191253662#0 -69347929 188730894#1 -188730894#0 740109140" arrivalPos="10.75" />
    </person>
    <person id="1299" depart="29290.24" departPos="random">
        <walk edges="519913265#1 519913265#0 120840710 519913263#0 519913263#1" busStop="1323.TA.92-1-N-j24-1.88.H.14" /> 
        <ride busStop="506.TA.92-10-J-j24-1.71.H.20" lines="20.TA.96-290-0-j24-1.10.H" intended="26.TA.96-290-0-j24-1.10.H.0" depart="29690.00" /> 
        <walk edges="30952515#0 72562019#0 -72562019#1 72562019#2 72562019#3 72562019#4 1435131955#1 -1435131955#2 235361066 1219872251 30957907" busStop="2545.TA.92-1-N-j24-1.95.R.4" /> 
        <ride busStop="2463.TA.92-1-N-j24-1.93.R.3" lines="2545.TA.92-1-N-j24-1.95.R" intended="2581.TA.92-1-N-j24-1.95.R.0" depart="30950.00" /> 
        <walk edges="-268146971#2 -268146971#3" arrivalPos="0.81" />
    </person>
    <person id="843" depart="29303.48" departPos="random">
        <walk edges="519913265#1 519913265#0 120840710 519913263#0 519913263#1" busStop="1323.TA.92-1-N-j24-1.88.H.14" /> 
        <ride busStop="1323.TA.92-1-N-j24-1.88.H.26" lines="20.TA.96-290-0-j24-1.10.H" intended="26.TA.96-290-0-j24-1.10.H.0" depart="29690.00" /> 
        <ride busStop="1406.TA.92-1-N-j24-1.89.H.29" lines="29.TA.92-20-E-j24-1.1.H" intended="40.TA.92-20-E-j24-1.1.H.0" depart="30530.00" /> 
        <walk edges="1050853710 -1050853709#1" arrivalPos="2.22" />
    </person>
    <person id="641" depart="29330.66" departPos="random">
        <walk edges="519913263#1" busStop="1323.TA.92-1-N-j24-1.88.H.14" /> 
        <ride busStop="1323.TA.92-1-N-j24-1.88.H.26" lines="20.TA.96-290-0-j24-1.10.H" intended="26.TA.96-290-0-j24-1.10.H.0" depart="29690.00" /> 
        <ride busStop="1406.TA.92-1-N-j24-1.89.H.29" lines="29.TA.92-20-E-j24-1.1.H" intended="40.TA.92-20-E-j24-1.1.H.0" depart="30530.00" /> 
        <walk edges="1050853710 -1050853709#1" arrivalPos="1.07" />
    </person>
    <person id="1037" depart="29403.54" departPos="random">
        <walk edges="519913265#1 519913265#0 120840710 519913263#0 519913263#1" busStop="1323.TA.92-1-N-j24-1.88.H.14" /> 
        <ride busStop="506.TA.92-10-J-j24-1.71.H.20" lines="20.TA.96-290-0-j24-1.10.H" intended="26.TA.96-290-0-j24-1.10.H.0" depart="29690.00" /> 
        <walk edges="30952515#0 72562019#0 -72562019#1 72562019#2 72562019#3 72562019#4 1435131955#1 -1435131955#2 235361066 1219872251 30957907" busStop="2545.TA.92-1-N-j24-1.95.R.4" /> 
        <ride busStop="2463.TA.92-1-N-j24-1.93.R.3" lines="2545.TA.92-1-N-j24-1.95.R" intended="2581.TA.92-1-N-j24-1.95.R.0" depart="30950.00" /> 
        <walk edges="-268146971#2 -268146971#3" arrivalPos="3.41" />
    </person>
    <person id="795" depart="29405.51" departPos="random">
        <walk edges="519913261#1 519913261#0 -897592613 519913263#0 519913263#1" busStop="1323.TA.92-1-N-j24-1.88.H.14" /> 
        <ride busStop="1323.TA.92-1-N-j24-1.88.H.26" lines="20.TA.96-290-0-j24-1.10.H" intended="26.TA.96-290-0-j24-1.10.H.0" depart="29690.00" /> 
        <ride busStop="1406.TA.92-1-N-j24-1.89.H.29" lines="29.TA.92-20-E-j24-1.1.H" intended="40.TA.92-20-E-j24-1.1.H.0" depart="30530.00" /> 
        <walk edges="1050853710 -1050853709#1" arrivalPos="1.33" />
    </person>
    <person id="1010" depart="29422.74" departPos="random">
        <walk edges="519913257#1 519913257#0 -904728442 -897592613 519913263#0 519913263#1" busStop="1323.TA.92-1-N-j24-1.88.H.14" /> 
        <ride busStop="506.TA.92-10-J-j24-1.71.H.20" lines="20.TA.96-290-0-j24-1.10.H" intended="26.TA.96-290-0-j24-1.10.H.0" depart="29690.00" /> 
        <walk edges="30952515#0 72562019#0 -72562019#1 72562019#2 72562019#3 72562019#4 1435131955#1 -1435131955#2 235361066 1219872251 30957907" busStop="2545.TA.92-1-N-j24-1.95.R.4" /> 
        <ride busStop="2463.TA.92-1-N-j24-1.93.R.3" lines="2545.TA.92-1-N-j24-1.95.R" intended="2581.TA.92-1-N-j24-1.95.R.0" depart="30950.00" /> 
        <walk edges="-268146971#2 -268146971#3" arrivalPos="6.07" />
    </person>
    <person id="1416" depart="29464.55" departPos="random">
        <walk edges="519913257#1 519913257#0 -904728442 -897592613 519913263#0 519913263#1" busStop="1323.TA.92-1-N-j24-1.88.H.14" /> 
        <ride busStop="506.TA.92-10-J-j24-1.71.H.20" lines="20.TA.96-290-0-j24-1.10.H" intended="26.TA.96-290-0-j24-1.10.H.0" depart="29690.00" /> 
        <walk edges="30952515#0 72562019#0 -72562019#1 72562019#2 72562019#3 72562019#4 1435131955#1 -1435131955#2 235361066 1219872251 30957907" busStop="2545.TA.92-1-N-j24-1.95.R.4" /> 
        <ride busStop="2463.TA.92-1-N-j24-1.93.R.3" lines="2545.TA.92-1-N-j24-1.95.R" intended="2581.TA.92-1-N-j24-1.95.R.0" depart="30950.00" /> 
        <walk edges="-268146971#2 -268146971#3" arrivalPos="4.57" />
    </person>
    <person id="985" depart="29473.69" departPos="random">
        <walk edges="519913261#1 519913261#0 -897592613 519913263#0 519913263#1" busStop="1323.TA.92-1-N-j24-1.88.H.14" /> 
        <ride busStop="506.TA.92-10-J-j24-1.71.H.20" lines="20.TA.96-290-0-j24-1.10.H" intended="26.TA.96-290-0-j24-1.10.H.0" depart="29690.00" /> 
        <walk edges="30952515#0 72562019#0 -72562019#1 72562019#2 72562019#3 72562019#4 1435131955#1 -1435131955#2 235361066 1219872251 30957907" busStop="2545.TA.92-1-N-j24-1.95.R.4" /> 
        <ride busStop="2463.TA.92-1-N-j24-1.93.R.3" lines="2545.TA.92-1-N-j24-1.95.R" intended="2581.TA.92-1-N-j24-1.95.R.0" depart="30950.00" /> 
        <walk edges="-268146971#2 -268146971#3" arrivalPos="15.54" />
    </person>
    <person id="598" depart="29474.64" departPos="random">
        <walk edges="519913261#1 519913261#0 -897592613 519913263#0 519913263#1" busStop="1323.TA.92-1-N-j24-1.88.H.14" /> 
        <ride busStop="1323.TA.92-1-N-j24-1.88.H.26" lines="20.TA.96-290-0-j24-1.10.H" intended="26.TA.96-290-0-j24-1.10.H.0" depart="29690.00" /> 
        <ride busStop="1406.TA.92-1-N-j24-1.89.H.29" lines="29.TA.92-20-E-j24-1.1.H" intended="40.TA.92-20-E-j24-1.1.H.0" depart="30530.00" /> 
        <walk edges="1050853710 -1050853709#1" arrivalPos="0.78" />
    </person>
    <person id="786" depart="29484.37" departPos="random">
        <walk edges="519913257#1 519913257#0 -904728442 -897592613 519913263#0 519913263#1" busStop="1323.TA.92-1-N-j24-1.88.H.14" /> 
        <ride busStop="1323.TA.92-1-N-j24-1.88.H.26" lines="20.TA.96-290-0-j24-1.10.H" intended="26.TA.96-290-0-j24-1.10.H.0" depart="29690.00" /> 
        <ride busStop="1406.TA.92-1-N-j24-1.89.H.29" lines="29.TA.92-20-E-j24-1.1.H" intended="40.TA.92-20-E-j24-1.1.H.0" depart="30530.00" /> 
        <walk edges="1050853710 -1050853709#1" arrivalPos="2.63" />
    </person>
    <person id="205" depart="29493.28" departPos="random">
        <walk edges="519913257#1 519913257#0 -904728442 -897592613 519913263#0 519913263#1" busStop="1323.TA.92-1-N-j24-1.88.H.14" /> 
        <ride busStop="506.TA.92-10-J-j24-1.71.H.21" lines="20.TA.96-290-0-j24-1.10.H" intended="26.TA.96-290-0-j24-1.10.H.0" depart="29690.00" /> 
        <walk edges="-1068735330#1 1068735330#0 18888058 72562012" arrivalPos="56.23" />
    </person>
    <person id="765" depart="29495.27" departPos="random">
        <walk edges="519913265#1 519913265#0 120840710 519913263#0 519913263#1" busStop="1323.TA.92-1-N-j24-1.88.H.14" /> 
        <ride busStop="1323.TA.92-1-N-j24-1.88.H.26" lines="20.TA.96-290-0-j24-1.10.H" intended="26.TA.96-290-0-j24-1.10.H.0" depart="29690.00" /> 
        <ride busStop="1406.TA.92-1-N-j24-1.89.H.29" lines="29.TA.92-20-E-j24-1.1.H" intended="40.TA.92-20-E-j24-1.1.H.0" depart="30530.00" /> 
        <walk edges="1050853710 -1050853709#1" arrivalPos="2.16" />
    </person>
    <person id="491" depart="29555.92" departPos="random">
        <walk edges="519913265#1 519913265#0 120840710 519913263#0 519913263#1" busStop="1323.TA.92-1-N-j24-1.88.H.14" /> 
        <ride busStop="1323.TA.92-1-N-j24-1.88.H.26" lines="20.TA.96-290-0-j24-1.10.H" intended="26.TA.96-290-0-j24-1.10.H.0" depart="29690.00" /> 
        <ride busStop="1406.TA.92-1-N-j24-1.89.H.29" lines="29.TA.92-20-E-j24-1.1.H" intended="40.TA.92-20-E-j24-1.1.H.0" depart="30530.00" /> 
        <walk edges="1050853710 -1050853709#1" arrivalPos="1.93" />
    </person>
    <person id="814" depart="29586.04" departPos="random">
        <walk edges="519913261#1 519913261#0 -897592613 519913263#0 519913263#1" busStop="1323.TA.92-1-N-j24-1.88.H.14" /> 
        <ride busStop="1323.TA.92-1-N-j24-1.88.H.26" lines="20.TA.96-290-0-j24-1.10.H" intended="26.TA.96-290-0-j24-1.10.H.0" depart="29690.00" /> 
        <ride busStop="1406.TA.92-1-N-j24-1.89.H.29" lines="29.TA.92-20-E-j24-1.1.H" intended="40.TA.92-20-E-j24-1.1.H.0" depart="30530.00" /> 
        <walk edges="1050853710 -1050853709#1" arrivalPos="3.03" />
    </person>
    <person id="502" depart="29600.84" departPos="random">
        <walk edges="519913257#1 519913257#0 -904728442 -897592613 519913263#0 519913263#1" busStop="1323.TA.92-1-N-j24-1.88.H.14" /> 
        <ride busStop="1323.TA.92-1-N-j24-1.88.H.26" lines="20.TA.96-290-0-j24-1.10.H" intended="26.TA.96-290-0-j24-1.10.H.0" depart="29690.00" /> 
        <ride busStop="1406.TA.92-1-N-j24-1.89.H.29" lines="29.TA.92-20-E-j24-1.1.H" intended="40.TA.92-20-E-j24-1.1.H.0" depart="30530.00" /> 
        <walk edges="1050853710 -1050853709#1" arrivalPos="1.00" />
    </person>
    <person id="645" depart="29653.00" departPos="random">
        <walk edges="519913257#1 519913257#0 -904728442 -897592613 519913263#0 519913263#1" busStop="1323.TA.92-1-N-j24-1.88.H.14" /> 
        <ride busStop="1323.TA.92-1-N-j24-1.88.H.26" lines="20.TA.96-290-0-j24-1.10.H" intended="26.TA.96-290-0-j24-1.10.H.0" depart="29690.00" /> 
        <ride busStop="1406.TA.92-1-N-j24-1.89.H.29" lines="29.TA.92-20-E-j24-1.1.H" intended="40.TA.92-20-E-j24-1.1.H.0" depart="30530.00" /> 
        <walk edges="1050853710 -1050853709#1" arrivalPos="1.60" />
    </person>
    <person id="550" depart="29663.89" departPos="random">
        <walk edges="519913261#1 519913261#0 -897592613 519913263#0 519913263#1" busStop="1323.TA.92-1-N-j24-1.88.H.14" /> 
        <ride busStop="1323.TA.92-1-N-j24-1.88.H.26" lines="20.TA.96-290-0-j24-1.10.H" intended="26.TA.96-290-0-j24-1.10.H.0" depart="29690.00" /> 
        <ride busStop="1406.TA.92-1-N-j24-1.89.H.29" lines="29.TA.92-20-E-j24-1.1.H" intended="40.TA.92-20-E-j24-1.1.H.0" depart="30530.00" /> 
        <walk edges="1050853710 -1050853709#1" arrivalPos="1.88" />
    </person>
    <person id="226" depart="29670.35" departPos="random">
        <walk edges="519913265#1 519913265#0 120840710 519913263#0 519913263#1" busStop="1323.TA.92-1-N-j24-1.88.H.14" /> 