<?xml version="1.0" encoding="UTF-8"?>

<!-- generated by Eclipse SUMO netedit Version 1.12.0
<configuration xmlns:xsi="http://www.w3.org/2001/XMLSchema-instance" xsi:noNamespaceSchemaLocation="http://sumo.dlr.de/xsd/netconvertConfiguration.xsd">

    <input>
        <sumo-net-file value="D:\Dokumente\sumo\maloja\simple.net.xml"/>
    </input>

    <output>
        <output-file value="D:\Dokumente\sumo\maloja\simple.net.xml"/>
        <output.street-names value="true"/>
    </output>

    <processing>
        <geometry.min-radius.fix.railways value="false"/>
        <geometry.avoid-overlap value="false"/>
        <geometry.max-grade.fix value="false"/>
        <offset.disable-normalization value="true"/>
        <lefthand value="false"/>
    </processing>

    <junctions>
        <no-turnarounds value="true"/>
        <junctions.corner-detail value="5"/>
        <junctions.limit-turn-speed value="5.5"/>
        <rectangular-lane-cut value="false"/>
    </junctions>

    <pedestrian>
        <walkingareas value="false"/>
    </pedestrian>

    <netedit>
        <additional-files value="D:\Dokumente\sumo\maloja\15_drt_fleet\drt_parking.add.xml"/>
    </netedit>

    <report>
        <aggregate-warnings value="5"/>
    </report>

</configuration>
-->

<additional xmlns:xsi="http://www.w3.org/2001/XMLSchema-instance" xsi:noNamespaceSchemaLocation="http://sumo.dlr.de/xsd/additional_file.xsd">
    <parkingArea id="pa_0" lane="531892740#1_0" startPos="5.00" endPos="10.00" friendlyPos="true" roadsideCapacity="13" onRoad="1"/>
    <parkingArea id="pa_1" lane="-543256264#0_0" startPos="5.00" endPos="120.00" friendlyPos="true" roadsideCapacity="13" onRoad="1"/>
    <parkingArea id="pa_2" lane="-1374129938_0" startPos="10.00" endPos="45.00" friendlyPos="true" roadsideCapacity="13" onRoad="1"/>
    <parkingArea id="pa_3" lane="-1083273106_0" startPos="5.00" endPos="20.00" friendlyPos="true" roadsideCapacity="13" onRoad="1"/>
    <parkingArea id="pa_4" lane="25418591#0_0" startPos="5.00" endPos="60.00" friendlyPos="true" roadsideCapacity="13" onRoad="1"/>
    <parkingArea id="pa_5" lane="-210208895_0" startPos="5.00" endPos="40.00" friendlyPos="true" roadsideCapacity="13" onRoad="1"/>
    <parkingArea id="pa_6" lane="-1068941219#6_0" startPos="30.00" endPos="60.00" friendlyPos="true" roadsideCapacity="13" onRoad="1"/>
    <parkingArea id="pa_7" lane="1426892794#0_0" startPos="5.00" endPos="25.00" friendlyPos="true" roadsideCapacity="13" onRoad="1"/>
    <parkingArea id="pa_8" lane="256959704#2_0" startPos="15.00" endPos="29.00" friendlyPos="true" roadsideCapacity="13" onRoad="1"/>
</additional>
