<?xml version="1.0" encoding="UTF-8"?>

<!-- generated by Eclipse SUMO netedit 1.26.0
-->

<additional xmlns:xsi="http://www.w3.org/2001/XMLSchema-instance" xsi:noNamespaceSchemaLocation="http://sumo.dlr.de/xsd/additional_file.xsd">
    <!-- TAZs -->
    <taz id="taz_Bregaglia_Summer" shape="13580.07,8776.03 13944.00,7890.45 14623.35,8339.31 14295.81,8994.39 13507.28,8763.90 13580.07,8776.03" color="red">
        <tazSource id="-1083277951#1" weight="1.00"/>
        <tazSink id="-1083277951#1" weight="1.00"/>
        <tazSource id="-25418325#1" weight="1.00"/>
        <tazSink id="-25418325#1" weight="1.00"/>
        <tazSource id="-315159485#0" weight="1.00"/>
        <tazSink id="-315159485#0" weight="1.00"/>
        <tazSource id="-366854461#1" weight="1.00"/>
        <tazSink id="-366854461#1" weight="1.00"/>
        <tazSource id="-68115532" weight="1.00"/>
        <tazSink id="-68115532" weight="1.00"/>
        <tazSource id="-70702075#1" weight="1.00"/>
        <tazSink id="-70702075#1" weight="1.00"/>
        <tazSource id="1036672004#0" weight="1.00"/>
        <tazSink id="1036672004#0" weight="1.00"/>
        <tazSource id="1069366697" weight="1.00"/>
        <tazSink id="1069366697" weight="1.00"/>
        <tazSource id="120839520" weight="1.00"/>
        <tazSink id="120839520" weight="1.00"/>
        <tazSource id="123066460" weight="1.00"/>
        <tazSink id="123066460" weight="1.00"/>
        <tazSource id="430248865#9" weight="1.00"/>
        <tazSink id="430248865#9" weight="1.00"/>
        <tazSource id="502426852#0" weight="1.00"/>
        <tazSink id="502426852#0" weight="1.00"/>
        <tazSource id="520821161#0" weight="1.00"/>
        <tazSink id="520821161#0" weight="1.00"/>
        <tazSource id="677287119#1" weight="1.00"/>
        <tazSink id="677287119#1" weight="1.00"/>
        <tazSource id="71759543#1" weight="1.00"/>
        <tazSink id="71759543#1" weight="1.00"/>
    </taz>
    <taz id="taz_Sils_Engadin_Summer" shape="25923.76,19242.07 25904.42,19155.42 25993.59,19153.74 26019.66,19221.88 25922.08,19237.86 25923.76,19242.07" color="red">
        <tazSource id="-188063062" weight="1.00"/>
        <tazSink id="-188063062" weight="1.00"/>
        <tazSource id="-56240279#4" weight="1.00"/>
        <tazSink id="-56240279#4" weight="1.00"/>
        <tazSource id="-96461182#0" weight="1.00"/>
        <tazSink id="-96461182#0" weight="1.00"/>
        <tazSource id="1317098557" weight="1.00"/>
        <tazSink id="1317098557" weight="1.00"/>
        <tazSource id="150335026#0" weight="1.00"/>
        <tazSink id="150335026#0" weight="1.00"/>
        <tazSource id="208825827#0" weight="1.00"/>
        <tazSink id="208825827#0" weight="1.00"/>
        <tazSource id="894849663" weight="1.00"/>
        <tazSink id="894849663" weight="1.00"/>
    </taz>
    <taz id="taz_Silvaplana_Summer" shape="29007.66,22445.26 28987.51,22345.61 29080.44,22344.49 29100.59,22430.71 29003.18,22440.78 29007.66,22445.26" color="red">
        <tazSource id="-147218475#2" weight="1.00"/>
        <tazSink id="-147218475#2" weight="1.00"/>
        <tazSource id="1068941219#7" weight="1.00"/>
        <tazSink id="1068941219#7" weight="1.00"/>
        <tazSource id="187633169#3" weight="1.00"/>
        <tazSink id="187633169#3" weight="1.00"/>
        <tazSource id="25418588#1" weight="1.00"/>
        <tazSink id="25418588#1" weight="1.00"/>
        <tazSource id="30957916#1" weight="1.00"/>
        <tazSink id="30957916#1" weight="1.00"/>
        <tazSource id="76091869#1" weight="1.00"/>
        <tazSink id="76091869#1" weight="1.00"/>
    </taz>
    <taz id="taz_St_Moritz_Summer" shape="32428.72,26426.02 32438.57,26274.53 32601.15,26307.79 32618.39,26445.73 32425.02,26424.79 32428.72,26426.02" color="red">
        <tazSource id="-196520689#0" weight="1.00"/>
        <tazSink id="-196520689#0" weight="1.00"/>
        <tazSource id="-25303487#3" weight="1.00"/>
        <tazSink id="-25303487#3" weight="1.00"/>
        <tazSource id="903531446" weight="1.00"/>
        <tazSink id="903531446" weight="1.00"/>
        <tazSource id="-268146971#2" weight="1.00"/>
        <tazSink id="-268146971#2" weight="1.00"/>
        <tazSource id="-210208895" weight="1.00"/>
        <tazSink id="-210208895" weight="1.00"/>
        <tazSource id="170952324#3" weight="1.00"/>
        <tazSink id="170952324#3" weight="1.00"/>
        <tazSource id="235361058#1" weight="1.00"/>
        <tazSink id="235361058#1" weight="1.00"/>
        <tazSource id="72562019#1" weight="1.00"/>
        <tazSink id="72562019#1" weight="1.00"/>
        <tazSource id="894576901#0" weight="1.00"/>
        <tazSink id="894576901#0" weight="1.00"/>
    </taz>
</additional>
