<?xml version="1.0" encoding="UTF-8"?>

<!-- generated by Eclipse SUMO netedit 1.26.0
-->

<additional xmlns:xsi="http://www.w3.org/2001/XMLSchema-instance" xsi:noNamespaceSchemaLocation="http://sumo.dlr.de/xsd/additional_file.xsd">
    <!-- StoppingPlaces -->
    <busStop id="-1117627228" name="St. Moritz Bad, Via Salet" lane="-25303487#4_0" startPos="10.28" endPos="25.28" friendlyPos="1" lines="606 601"/>
    <busStop id="-1117687286" name="Surlej, Punt" lane="-25418588#1_0" startPos="97.84" endPos="112.84" friendlyPos="1" lines="601 606"/>
    <busStop id="-1216746414" name="Rongellen, Abzw." lane="-35002461#0_0" startPos="86.16" endPos="101.16" friendlyPos="1" lines="522"/>
    <busStop id="-1216746414@12267247" name="Rongellen, Abzw." lane="-105664816_0" startPos="297.66" endPos="312.66" friendlyPos="1" lines="541"/>
    <busStop id="-1226803592" name="Surava, Abzweigung Bahnhof" lane="-75390607#1_0" startPos="48.39" endPos="63.39" friendlyPos="1" lines="572"/>
    <busStop id="-12666324817" name="Savognin, scola/Skischule" lane="-1367625849_0" startPos="10.95" endPos="25.95" friendlyPos="1" lines="581"/>
    <busStop id="-12666324817@12270349" name="Savognin, scola/Skischule" lane="-1367625849_0" startPos="10.95" endPos="25.95" friendlyPos="1" lines="581"/>
    <busStop id="-132956768" name="Bären" lane="-1161282679#6_0" startPos="12.18" endPos="27.18" friendlyPos="1" lines="602 606"/>
    <busStop id="-132957099" name="Cresta Kulm" lane="-923912051#0_0" startPos="17.65" endPos="32.65" friendlyPos="1" lines="602 606"/>
    <busStop id="-132997656" name="Bivio, Suracqua" lane="-186141777#7_0" startPos="8.60" endPos="23.60" friendlyPos="1" lines="182"/>
    <busStop id="-1353865247" name="Stampa, Villaggio" lane="-391657356_0" startPos="21.27" endPos="36.27" friendlyPos="1" lines="631 604"/>
    <busStop id="-1353924925" name="Lobbia" lane="-430248865#10_0" startPos="116.01" endPos="131.01" friendlyPos="1" lines="604"/>
    <busStop id="-1353924926" name="Cad'Maté" lane="-501346489#2_0" startPos="15.46" endPos="30.46" friendlyPos="1" lines="604"/>
    <busStop id="-1353945426" name="Capolago" lane="-315159496#0_0" startPos="0.00" endPos="4.19" friendlyPos="1" lines="602 604"/>
    <busStop id="-1381741108" name="Lantsch/Lenz, Barbatschauns" lane="-897592624#7_0" startPos="35.24" endPos="50.24" friendlyPos="1" lines="183"/>
    <busStop id="-1633936240" name="Mulegns" lane="-1435042405_0" startPos="0.00" endPos="7.42" friendlyPos="1" lines="182"/>
    <busStop id="-1807738422" name="La Rosa" lane="-40086147#10_0" startPos="183.51" endPos="198.51" friendlyPos="1" lines="706 701"/>
    <busStop id="-205012178" name="Segantini Museum" lane="-1115020158_0" startPos="8.52" endPos="23.52" friendlyPos="1" lines="602"/>
    <busStop id="-205191796" name="Sportpavillon" lane="-19736079#5_0" startPos="0.00" endPos="15.00" friendlyPos="1" lines="601 602"/>
    <busStop id="-2197665345" name="Madulain, vih" lane="-209542564#3_0" startPos="44.12" endPos="59.12" friendlyPos="1" lines="608"/>
    <busStop id="-2202574596" name="Surava, Dorf" lane="-591634927#1_0" startPos="3.10" endPos="18.10" friendlyPos="1" lines="572"/>
    <busStop id="-247803148" name="Bergün/Bravuogn, staziun" lane="-22987122#1_0" startPos="0.00" endPos="15.00" friendlyPos="1" lines="592"/>
    <busStop id="-275619003" name="St. Moritz Bad, Via Aruons" lane="-152517715#3_0" startPos="181.69" endPos="196.69" friendlyPos="1" lines="606 601"/>
    <busStop id="-277017588" name="Somplaz" lane="-25303488#4_0" startPos="177.05" endPos="192.05" friendlyPos="1" lines="602"/>
    <busStop id="-291628967" name="Tiefencastel, staziun" lane="-596221490_0" startPos="10.85" endPos="25.85" friendlyPos="1" lines="182 571"/>
    <busStop id="-291840311" name="Surava, Pro Quarta" lane="-374158117#0_0" startPos="13.87" endPos="28.87" friendlyPos="1" lines="572"/>
    <busStop id="-3133559687" name="Cavril" lane="-170952338#3_0" startPos="657.37" endPos="672.37" friendlyPos="1" lines="604"/>
    <busStop id="-3165402340" name="Chamues-ch, Müsella" lane="-25879186#5_0" startPos="1.74" endPos="16.74" friendlyPos="1" lines="606 607 608"/>
    <busStop id="-3165402341" name="La Punt, Krone" lane="-25879170_0" startPos="0.00" endPos="15.00" friendlyPos="1" lines="606 607 608"/>
    <busStop id="-3216173657" name="Le Prese, Scuole" lane="-270760361#0_0" startPos="57.89" endPos="72.89" friendlyPos="1" lines="702"/>
    <busStop id="-331333728" name="Mon, avant porta" lane="-29377533#0_0" startPos="3.72" endPos="18.72" friendlyPos="1" lines="581"/>
    <busStop id="-331335350" name="Mon, plaz" lane="-29377533#2_0" startPos="0.00" endPos="15.00" friendlyPos="1" lines="581"/>
    <busStop id="-331337795" name="Salouf, baselgia" lane="-690960932#1_0" startPos="123.07" endPos="138.07" friendlyPos="1" lines="581"/>
    <busStop id="-331339192" name="Lantsch/Lenz, Sudem Vischnanca" lane="-29377506#0_0" startPos="34.92" endPos="49.92" friendlyPos="1" lines="182 183"/>
    <busStop id="-33786948" name="Prazet" lane="-140549298#5_0" startPos="507.77" endPos="522.77" friendlyPos="1" lines="812"/>
    <busStop id="-344235049" name="Champfèr Schulhaus" lane="-30952515#0_0" startPos="0.00" endPos="12.25" friendlyPos="1" lines="606 604"/>
    <busStop id="-345352138" name="Cadras" lane="-1219873853_0" startPos="74.59" endPos="89.59" friendlyPos="1" lines="182"/>
    <busStop id="-375965640" name="Bergün/Bravuogn, Tuors Chants" lane="-70810788#3_0" startPos="5.96" endPos="20.96" friendlyPos="1" lines="592"/>
    <busStop id="-3844209124" name="Pontresina, Gitogla" lane="-1069366716#1_0" startPos="0.00" endPos="15.00" friendlyPos="1" lines="701"/>
    <busStop id="-433476414" name="Filisur, Schontal" lane="-591644944#0_0" startPos="22.46" endPos="37.46" friendlyPos="1" lines="572"/>
    <busStop id="-437403437" name="Cresta Palace" lane="-1034267682#2_0" startPos="0.00" endPos="2.01" friendlyPos="1" lines="602 606"/>
    <busStop id="-437403438" name="Punt Muragl Talstation" lane="-19724333#1_0" startPos="0.00" endPos="15.00" friendlyPos="1" lines="601"/>
    <busStop id="-438282770" name="Curtinell" lane="-704197224#2_0" startPos="0.00" endPos="15.00" friendlyPos="1" lines="702 706 701"/>
    <busStop id="-438576063" name="Bernina Suot, Bahnhof" lane="-470950954#0_0" startPos="0.00" endPos="0.20" friendlyPos="1" lines="602 705 701"/>
    <busStop id="-443422696" name="Sils/Segl Maria, Posta" lane="-894905824_0" startPos="5.78" endPos="20.78" friendlyPos="1" lines="631 602 606 604"/>
    <busStop id="-443422696@1389951" name="Sils/Segl Maria, Posta" lane="-894905824_0" startPos="5.78" endPos="20.78" friendlyPos="1" lines="606"/>
    <busStop id="-4495057016" name="Marmorera, Scalotta" lane="-170975837#3_0" startPos="130.17" endPos="145.17" friendlyPos="1" lines="182"/>
    <busStop id="-458472222" name="Avers, Juppa" lane="-304719789#1_0" startPos="0.00" endPos="25.00" friendlyPos="1" lines="552"/>
    <busStop id="-4651483619" name="Palü" lane="-268784315#2_0" startPos="0.00" endPos="15.00" friendlyPos="1" lines="602 705 701"/>
    <busStop id="-4651483624" lane="-25418830#0_0" startPos="526.15" endPos="541.15" friendlyPos="1" lines="602 705 701"/>
    <busStop id="-4652563627" name="Punt Muragl Talstation" lane="-19724333#1_0" startPos="0.00" endPos="15.00" friendlyPos="1" lines="601 602 701"/>
    <busStop id="-4665151684" name="Reithalle" lane="-89726026#3_0" startPos="0.00" endPos="15.00" friendlyPos="1" lines="609"/>
    <busStop id="-4665151685" name="St. Moritz Bad, Post" lane="-170952322#1_0" startPos="18.59" endPos="33.59" friendlyPos="1" lines="631 182 609"/>
    <busStop id="-4665151687" name="Guardalej" lane="-1068735330#1_0" startPos="0.00" endPos="14.08" friendlyPos="1" lines="602 604 606"/>
    <busStop id="-4665152189" name="Plaun da Lej" lane="-1086010096_0" startPos="0.00" endPos="15.00" friendlyPos="1" lines="604"/>
    <busStop id="-4665152191" name="Pranzaira, Albigna" lane="-1443580513#2_0" startPos="6.30" endPos="21.30" friendlyPos="1" lines="604"/>
    <busStop id="-4665152194" name="Villa di Chiavenna, Per Canete" lane="-104043641_0" startPos="0.00" endPos="15.00" friendlyPos="1" lines="604"/>
    <busStop id="-4665152195" name="Villa di Chiavenna, Ponteggia" lane="-429497068#0_0" startPos="0.00" endPos="15.00" friendlyPos="1" lines="604"/>
    <busStop id="-4665152196" name="Villa di Chiavenna, Giavera" lane="-179172500#2_0" startPos="172.32" endPos="187.32" friendlyPos="1" lines="604"/>
    <busStop id="-4665152197" name="S. Croce" lane="-1090867883_0" startPos="0.00" endPos="15.00" friendlyPos="1" lines="604"/>
    <busStop id="-4724569889" name="Savognin, pendicularas" lane="-231854090_0" startPos="102.64" endPos="117.64" friendlyPos="1" lines="582"/>
    <busStop id="-4726149881" name="Savognin, Cresta" lane="-200933442#3_0" startPos="22.27" endPos="37.27" friendlyPos="1" lines="182 581 582"/>
    <busStop id="-492816907" name="Bergün/Bravuogn, Tuors Davant" lane="-1300064501#0_0" startPos="83.12" endPos="98.12" friendlyPos="1" lines="592"/>
    <busStop id="-502912864" name="Alvaschein, vischnanca" lane="-124981129#0_0" startPos="5.29" endPos="20.29" friendlyPos="1" lines="571"/>
    <busStop id="-5068626632" name="St. Moritz Bahnhof" lane="-904728442_0" startPos="0.00" endPos="1.17" friendlyPos="1" lines="705"/>
    <busStop id="-5068626634" name="St. Moritz Bahnhof" lane="-120840710_0" startPos="0.00" endPos="2.54" friendlyPos="1" lines="631"/>
    <busStop id="-5068626635" name="St. Moritz, Bahnhof" lane="-903531446_0" startPos="3.37" endPos="18.37" friendlyPos="1" lines="604"/>
    <busStop id="-526962286" name="Maloja Posta" lane="-977972910_0" startPos="17.36" endPos="32.36" friendlyPos="1" lines="604 631"/>
    <busStop id="-526962286@12271311" name="Maloja Posta" lane="-977972910_0" startPos="17.36" endPos="32.36" friendlyPos="1" lines="602"/>
    <busStop id="-526962492" name="Plaun da Lej" lane="-208825827#0_0" startPos="79.66" endPos="94.66" friendlyPos="1" lines="602"/>
    <busStop id="-528183323" name="Chamues-ch, plaz" lane="-894905821_0" startPos="0.00" endPos="2.92" friendlyPos="1" lines="608"/>
    <busStop id="-5303347931" name="Lantsch/Lenz, Biathlon Arena" lane="-690751814#1_0" startPos="14.17" endPos="29.17" friendlyPos="1" lines="182 183"/>
    <busStop id="-5303364149" name="Alvaneu Bad, Solas" lane="-472364555#1_0" startPos="558.52" endPos="573.52" friendlyPos="1" lines="572"/>
    <busStop id="-5303364150" name="Lantsch/Lenz, Sozas" lane="-77047613#1_0" startPos="57.64" endPos="72.64" friendlyPos="1" lines="182"/>
    <busStop id="-5680501401" name="Filisur, Bahnhof" lane="-690318937_0" startPos="0.00" endPos="15.00" friendlyPos="1" lines="572"/>
    <busStop id="-5706698754" name="Schmitten (Albula), Innerdorf" lane="-146590566_0" startPos="0.00" endPos="15.00" friendlyPos="1" lines="183"/>
    <busStop id="-5954436249" name="Stierva" lane="-316213624#1_0" startPos="0.00" endPos="15.00" friendlyPos="1" lines="573 581"/>
    <busStop id="-5994130922" name="Bivio, Las Colonnas/Passhohe" lane="-635442479_0" startPos="14.54" endPos="29.54" friendlyPos="1" lines="182"/>
    <busStop id="-5994227898" name="Silvaplana, Lej Tscheppa" lane="-1068941219#7_0" startPos="67.81" endPos="82.81" friendlyPos="1" lines="182"/>
    <busStop id="-6155985634" name="Silvaplana, Camping" lane="-209788013_0" startPos="509.38" endPos="524.38" friendlyPos="1" lines="620 602 604 606"/>
    <busStop id="-6158545029" name="Via San Gian" lane="-170952324#1_0" startPos="17.72" endPos="32.72" friendlyPos="1" lines="609"/>
    <busStop id="-6158908793" name="Via San Gian" lane="-170952324#1_0" startPos="11.01" endPos="26.01" friendlyPos="1" lines="609 606 601"/>
    <busStop id="-6160988058" name="St. Moritz Bad, Hallenbad" lane="-170940321#0_0" startPos="29.82" endPos="44.82" friendlyPos="1" lines="601 606 604 609"/>
    <busStop id="-6551343341" name="Sur GR Alp Flix, Truaschigna" lane="-170975832#3_0" startPos="0.00" endPos="15.00" friendlyPos="1" lines="188"/>
    <busStop id="-669863887" name="Celerina, Trais Fluors" lane="-52823909#0_0" startPos="0.00" endPos="15.00" friendlyPos="1" lines="606"/>
    <busStop id="-6782402546" name="St. Moritz Bad, Sonne" lane="-30050433#2_0" startPos="31.19" endPos="46.19" friendlyPos="1" lines="606 601"/>
    <busStop id="-7107652063" name="Godin" lane="-1435928294#3_0" startPos="0.00" endPos="15.00" friendlyPos="1" lines="601 602"/>
    <busStop id="-733167274" name="Bergün/Bravuogn, posta" lane="-127417609_0" startPos="0.00" endPos="10.65" friendlyPos="1" lines="591"/>
    <busStop id="-766917824" name="Pontresina, Post" lane="-23843004#1_0" startPos="17.05" endPos="32.05" friendlyPos="1" lines="601 602 701 705"/>
    <busStop id="-7801232624" name="Kulm" lane="-268146940#6_0" startPos="80.33" endPos="95.33" friendlyPos="1" lines="602 606"/>
    <busStop id="-80118926" name="Lantsch/Lenz, Barbatschauns" lane="-897592624#8_0" startPos="13.93" endPos="28.93" friendlyPos="1" lines="182"/>
    <busStop id="-807798901" name="Bever, Bahnhof" lane="-819578576#2_0" startPos="0.83" endPos="15.83" friendlyPos="1" lines="606"/>
    <busStop id="-813777342" name="Rania" lane="-77363681#2_0" startPos="532.83" endPos="547.83" friendlyPos="1" lines="541"/>
    <busStop id="-813777364" name="Viamala-Schlucht" lane="-105664812#1_0" startPos="0.00" endPos="9.15" friendlyPos="1" lines="541"/>
    <busStop id="-813799737" name="Abzw. Valle di Lei" lane="-38694686#1_0" startPos="0.00" endPos="15.00" friendlyPos="1" lines="552"/>
    <busStop id="-813799811" name="Abzw. Val digl Uors" lane="-1089887708#0_0" startPos="0.00" endPos="15.00" friendlyPos="1" lines="552"/>
    <busStop id="-813814226" name="Am Bach" lane="-320560205#4_0" startPos="0.00" endPos="15.00" friendlyPos="1" lines="552"/>
    <busStop id="-813814235" name="Campsut" lane="-38694690#1_0" startPos="49.82" endPos="64.82" friendlyPos="1" lines="552"/>
    <busStop id="-813814291" name="Crot" lane="-38694690#3_0" startPos="0.00" endPos="15.00" friendlyPos="1" lines="552"/>
    <busStop id="-813814300" name="Juf" lane="-655899989_0" startPos="0.00" endPos="15.00" friendlyPos="1" lines="552"/>
    <busStop id="-813814309" name="Rufana" lane="-67386045#2_0" startPos="0.00" endPos="15.00" friendlyPos="1" lines="552"/>
    <busStop id="-813814325" name="Pürd" lane="-320560205#0_0" startPos="159.64" endPos="174.64" friendlyPos="1" lines="552"/>
    <busStop id="-813814340" name="Podestats Haus" lane="-67386045#5_0" startPos="465.03" endPos="480.03" friendlyPos="1" lines="552"/>
    <busStop id="-813814342" name="Cresta" lane="-961236599#1_0" startPos="35.95" endPos="50.95" friendlyPos="1" lines="552"/>
    <busStop id="-813814355" name="Lezibrücke" lane="-916850589#0_0" startPos="12.28" endPos="27.28" friendlyPos="1" lines="552"/>
    <busStop id="-8162324350" name="Alp Güglia" lane="-612250570#5_0" startPos="0.00" endPos="15.00" friendlyPos="1" lines="182"/>
    <busStop id="-821112177" name="Casaccia, Villaggio" lane="-633986854#1_0" startPos="0.00" endPos="14.52" friendlyPos="1" lines="631 604"/>
    <busStop id="-821153224" name="St. Moritz Bad, Kath. Kirche" lane="-30957915_0" startPos="2.26" endPos="17.26" friendlyPos="1" lines="601 606"/>
    <busStop id="-821153226" name="Signalbahn" lane="-268146971#2_0" startPos="29.89" endPos="44.89" friendlyPos="1" lines="601 606"/>
    <busStop id="-821153238" name="Sils/Segl Maria, Seglias" lane="-1472605488#0_0" startPos="0.00" endPos="15.00" friendlyPos="1" lines="602 604 606"/>
    <busStop id="-821153250" name="Sils/Segl Baselgia, San Lurench" lane="-56240189#0_0" startPos="9.09" endPos="24.09" friendlyPos="1" lines="602 604 621"/>
    <busStop id="-821153254" name="Sils/Segl Maria, Seglias" lane="-96461182#0_0" startPos="0.00" endPos="15.00" friendlyPos="1" lines="621"/>
    <busStop id="-821153295" name="Campingplatz" lane="-30957907_0" startPos="58.53" endPos="73.53" friendlyPos="1" lines="182 604 606 601"/>
    <busStop id="-821153327" name="Baselgia, Biblioteca" lane="-56240189#7_0" startPos="18.55" endPos="33.55" friendlyPos="1" lines="631 602 604"/>
    <busStop id="-829493455" name="Alvaneu Dorf, Crappa Naira" lane="-314389278#0_0" startPos="0.00" endPos="15.00" friendlyPos="1" lines="183"/>
    <busStop id="-831897878" name="Savognin, Posta" lane="-804905485_0" startPos="13.09" endPos="28.09" friendlyPos="1" lines="182 582"/>
    <busStop id="-831897878@12270346" name="Savognin, Posta" lane="-897592622#0_0" startPos="4.33" endPos="19.33" friendlyPos="1" lines="581"/>
    <busStop id="-8390623919" name="Savognin, Surses Alpin" lane="-1036095972#1_0" startPos="0.00" endPos="15.00" friendlyPos="1" lines="582"/>
    <busStop id="-8390623920" name="Savognin, Danilo" lane="-818486760#4_0" startPos="0.00" endPos="15.00" friendlyPos="1" lines="582"/>
    <busStop id="-8390623921" name="Savognin, Tgampi" lane="-1313544739#2_0" startPos="0.00" endPos="15.00" friendlyPos="1" lines="582"/>
    <busStop id="-8390623922" name="Savognin, Tect" lane="-39200972#4_0" startPos="0.05" endPos="15.05" friendlyPos="1" lines="582"/>
    <busStop id="-8390623924" name="Savognin, Canetel" lane="-39200972#0_0" startPos="161.59" endPos="176.59" friendlyPos="1" lines="582"/>
    <busStop id="-8390623925" name="Savognin, Soras" lane="-107244417_0" startPos="0.00" endPos="13.41" friendlyPos="1" lines="582"/>
    <busStop id="-8390623926" name="Savognin, Sot Spondas" lane="-56472771#2_0" startPos="40.85" endPos="55.85" friendlyPos="1" lines="582"/>
    <busStop id="-8390623927" name="Savognin, Sur Ual" lane="-56464389#6_0" startPos="0.00" endPos="15.00" friendlyPos="1" lines="582"/>
    <busStop id="-8390623928" name="Savognin, Bursa" lane="-56464389#2_0" startPos="30.52" endPos="45.52" friendlyPos="1" lines="582"/>
    <busStop id="-8390722481" name="La Punt, Alp Alesch" lane="-1428282458_0" startPos="0.00" endPos="15.00" friendlyPos="1" lines="593"/>
    <busStop id="-8390722482" name="La Punt, Parkplatz Es-cha" lane="-269392429#4_0" startPos="0.93" endPos="15.93" friendlyPos="1" lines="593"/>
    <busStop id="-8390722483" name="Albulapass, Hospiz" lane="-471148551#5_0" startPos="0.00" endPos="0.20" friendlyPos="1" lines="593"/>
    <busStop id="-8390722484" name="Preda, Crap Alv" lane="-471725076#0_0" startPos="0.00" endPos="15.00" friendlyPos="1" lines="593"/>
    <busStop id="-8390722485" name="Preda, Lai da Palpuogna" lane="-1274500275#8_0" startPos="70.33" endPos="85.33" friendlyPos="1" lines="593"/>
    <busStop id="-8390722486" name="Preda, Hotel Kulm/Bahnhof" lane="-211921106_0" startPos="0.00" endPos="4.66" friendlyPos="1" lines="593"/>
    <busStop id="-8393576107" name="Samedan, Porta Samedan" lane="-68285269#1_0" startPos="14.95" endPos="29.95" friendlyPos="1" lines="601"/>
    <busStop id="-8393639873" name="Surlej, Islas" lane="-187633169#3_0" startPos="0.00" endPos="15.00" friendlyPos="1" lines="620"/>
    <busStop id="-8396755800" name="Sils/Segl Baselgia, Silserhof" lane="-973459742#2_0" startPos="56.66" endPos="71.66" friendlyPos="1" lines="621"/>
    <busStop id="-8396755801" name="Sils/Segl Baselgia, Muttals" lane="-973459742#0_0" startPos="0.00" endPos="14.92" friendlyPos="1" lines="621"/>
    <busStop id="-8396755802" name="Sils/Segl Baselgia, Chesa Randolina" lane="-56240189#7_0" startPos="22.55" endPos="37.55" friendlyPos="1" lines="621"/>
    <busStop id="-8396755803" name="Sils/Segl Baselgia, Margna" lane="-56240189#4_0" startPos="0.00" endPos="15.00" friendlyPos="1" lines="621"/>
    <busStop id="-8396755804" name="Sils/Segl Maria, Foglias" lane="-25418326#0_0" startPos="299.48" endPos="314.48" friendlyPos="1" lines="621"/>
    <busStop id="-8418161906" name="Morteratsch, Abzweigung" lane="-25418830#0_0" startPos="523.76" endPos="538.76" friendlyPos="1" lines="602 705 701"/>
    <busStop id="-847536576" name="Samedan, Golf" lane="-25418890#1_0" startPos="0.00" endPos="11.36" friendlyPos="1" lines="601"/>
    <busStop id="-849784982" name="Mon, avant porta" lane="-170975839#1_0" startPos="0.00" endPos="15.00" friendlyPos="1" lines="573"/>
    <busStop id="-860597065" name="Salouf, vischnanca" lane="-853527378_0" startPos="25.07" endPos="40.07" friendlyPos="1" lines="581"/>
    <busStop id="-903913316" name="Schmitten (Albula), Dorf" lane="-690554953#2_0" startPos="37.87" endPos="52.87" friendlyPos="1" lines="183"/>
    <busStop id="-903913336" name="Brienz/Brinzauls, Dorf" lane="-127569280#1_0" startPos="0.19" endPos="15.19" friendlyPos="1" lines="183"/>
    <busStop id="-903916646" name="Vazerol" lane="-645430773_0" startPos="22.61" endPos="37.61" friendlyPos="1" lines="182"/>
    <busStop id="-9175537273" name="Soglio, Plazza" lane="-370855281#1_0" startPos="34.61" endPos="49.61" friendlyPos="1" lines="632"/>
    <busStop id="-9287969903" name="Stampa, Val d'Arca" lane="-502426852#0_0" startPos="65.99" endPos="80.99" friendlyPos="1" lines="604"/>
    <busStop id="-954728927" name="Schlossgarage" lane="-1115818841#0_0" startPos="1.11" endPos="16.11" friendlyPos="1" lines="601 602"/>
    <busStop id="-968673775" name="Stafel" lane="-537206171#4_0" startPos="68.14" endPos="83.14" friendlyPos="1" lines="521"/>
    <busStop id="-984704009" name="Vicosoprano, Camping" lane="-1083273108#2_0" startPos="207.49" endPos="222.49" friendlyPos="1" lines="604"/>
    <busStop id="-984704021" name="Promontogno, Ospedale Flin" lane="-370855281#6_0" startPos="0.00" endPos="15.00" friendlyPos="1" lines="632"/>
    <busStop id="-984704024" name="Nasciarina" lane="-430248865#1_0" startPos="167.42" endPos="182.42" friendlyPos="1" lines="604"/>
    <busStop id="-984704035" name="Zocca" lane="-430248865#3_0" startPos="76.03" endPos="91.03" friendlyPos="1" lines="604"/>
    <busStop id="-984705139" name="Borgonovo-Villaggio" lane="-1083351550#0_0" startPos="9.19" endPos="24.19" friendlyPos="1" lines="631 604"/>
    <busStop id="-984705778" name="Mutten, Unterdorf" lane="-806126476#0_0" startPos="147.99" endPos="162.99" friendlyPos="1" lines="521"/>
    <busStop id="-984705902" name="Soglio, Villaggio" lane="-62065386_0" startPos="29.42" endPos="44.42" friendlyPos="1" lines="632"/>
    <busStop id="-984705978" name="Vicosoprano, Helvetia" lane="-502426855#1_0" startPos="42.84" endPos="57.84" friendlyPos="1" lines="631 604"/>
    <busStop id="-984706019" name="Obermutten" lane="-83056282#1_0" startPos="0.00" endPos="15.00" friendlyPos="1" lines="521"/>
    <busStop id="-984707413" name="Mutten, Dorfmitte" lane="-806126477#0_0" startPos="112.40" endPos="127.40" friendlyPos="1" lines="521"/>
    <busStop id="-984707555" name="Villa di Chiavenna, Centro" lane="-881602695#1_0" startPos="0.00" endPos="15.00" friendlyPos="1" lines="604"/>
    <busStop id="-984708151" name="Mutten, Oberdorf" lane="-537206180#0_0" startPos="0.00" endPos="15.00" friendlyPos="1" lines="521"/>
    <busStop id="-984708515" name="Vicosoprano, Plazza" lane="-890169725#1_0" startPos="0.00" endPos="6.08" friendlyPos="1" lines="604"/>
    <busStop id="-984711652" name="S. Carlo, Percosta" lane="-169639668#0_0" startPos="0.00" endPos="12.76" friendlyPos="1" lines="702"/>
    <busStop id="-984711686" name="Bernina, Lagalbbahn" lane="-930814966#0_0" startPos="7.56" endPos="22.56" friendlyPos="1" lines="602"/>
    <busStop id="-984711686@12271290" name="Bernina, Lagalbbahn" lane="-894576899#0_0" startPos="0.00" endPos="0.20" friendlyPos="1" lines="602"/>
    <busStop id="-984711710" name="S-chanf, Parc Naziunal" lane="-28986224#1_0" startPos="0.00" endPos="15.00" friendlyPos="1" lines="608"/>
    <busStop id="-984711712" name="Samedan, Spital" lane="-268026212#0_0" startPos="22.78" endPos="37.78" friendlyPos="1" lines="606"/>
    <busStop id="-984711721" name="Bever, Dorfzentrum" lane="-924120656#0_0" startPos="22.84" endPos="37.84" friendlyPos="1" lines="606"/>
    <busStop id="-984711738" name="Chapella, La Resgia" lane="-26165780_0" startPos="0.00" endPos="15.00" friendlyPos="1" lines="608"/>
    <busStop id="-984711746" name="Zuoz, Chaunt da Crusch" lane="-300918337#2_0" startPos="154.53" endPos="169.53" friendlyPos="1" lines="608"/>
    <busStop id="-984711756" name="Chamues-ch, plaz" lane="-894905822_0" startPos="0.00" endPos="13.97" friendlyPos="1" lines="608 593"/>
    <busStop id="-984711762" name="Zuoz, staziun" lane="-54430667#5_0" startPos="7.54" endPos="22.54" friendlyPos="1" lines="608"/>
    <busStop id="-984711767" name="S-chanf, Chesa cumünela" lane="-1070048517#0_0" startPos="0.00" endPos="6.93" friendlyPos="1" lines="608"/>
    <busStop id="-984711788" name="S-chanf, Somvih" lane="-28985863_0" startPos="83.95" endPos="98.95" friendlyPos="1" lines="608"/>
    <busStop id="-984711798" name="Pontresina, Bahnhof" lane="-61427874#2_0" startPos="0.00" endPos="14.60" friendlyPos="1" lines="602"/>
    <busStop id="-984711811" name="Zuoz, Aguêl" lane="-1070048512_0" startPos="96.53" endPos="111.53" friendlyPos="1" lines="608"/>
    <busStop id="-984711952" name="Li Curt, Annunziata" lane="-28330931#10_0" startPos="0.00" endPos="15.00" friendlyPos="1" lines="702"/>
    <busStop id="-984712056" name="Brienz/Brinzauls, Belfort" lane="-30153053#1_0" startPos="449.99" endPos="464.99" friendlyPos="1" lines="183"/>
    <busStop id="-984712109" name="Schmitten (Albula), Chappali" lane="-1334836950_0" startPos="213.12" endPos="228.12" friendlyPos="1" lines="183"/>
    <busStop id="-984712111" name="Alvaneu Bad, Dorfplatz" lane="-591644951#2_0" startPos="0.00" endPos="15.00" friendlyPos="1" lines="572"/>
    <busStop id="-984712115" name="Alvaneu, Bahnhof" lane="-590867398#0_0" startPos="0.00" endPos="15.00" friendlyPos="1" lines="572"/>
    <busStop id="-984712126" name="Gipsmühle" lane="-124981129#4_0" startPos="12.73" endPos="27.73" friendlyPos="1" lines="571"/>
    <busStop id="-984712151" name="Alp Camp" lane="-506786371#0_0" startPos="2068.01" endPos="2083.01" friendlyPos="1" lines="703"/>
    <busStop id="-984712156" name="Ospizio Bernina, Albergo" lane="-169608570_0" startPos="32.19" endPos="47.19" friendlyPos="1" lines="705 701"/>
    <busStop id="-984712166@2257824" name="La Motta, Dogana" lane="-40086147#19_0" startPos="0.00" endPos="15.00" friendlyPos="1" lines="701"/>
    <busStop id="-984712170" name="Li Mason, Fermata" lane="-40086147#15_0" startPos="4.73" endPos="19.73" friendlyPos="1" lines="706 701"/>
    <busStop id="-984712221" name="Li Curt, Stazione" lane="-695615826#1_0" startPos="0.00" endPos="15.00" friendlyPos="1" lines="701"/>
    <busStop id="-984712221@12285832" name="Li Curt, Stazione" lane="-122569451#1_0" startPos="0.00" endPos="15.00" friendlyPos="1" lines="702"/>
    <busStop id="-984712229" name="Li Curt, S. Antonio" lane="-802170168#7_0" startPos="104.90" endPos="119.90" friendlyPos="1" lines="702 701"/>
    <busStop id="-984712250" name="Poschiavo, Stazione" lane="-1026956934#1_0" startPos="17.08" endPos="32.08" friendlyPos="1" lines="701 702 706"/>
    <busStop id="-984712269" name="Mulino Aino" lane="-360201527#2_0" startPos="1.32" endPos="16.32" friendlyPos="1" lines="702 706"/>
    <busStop id="-984712288" name="Le Prese, Stazione" lane="-904704907#1_0" startPos="6.49" endPos="21.49" friendlyPos="1" lines="702 701"/>
    <busStop id="-984712300" name="Le Prese, Cantone" lane="-28330931#0_0" startPos="199.94" endPos="214.94" friendlyPos="1" lines="702"/>
    <busStop id="-984712306" name="Le Prese, Pagnoncini" lane="-28330931#5_0" startPos="10.53" endPos="25.53" friendlyPos="1" lines="702"/>
    <busStop id="-984712311" name="Prada" lane="-904704904#1_0" startPos="0.00" endPos="15.00" friendlyPos="1" lines="702"/>
    <busStop id="-984712322" name="Pozzulasc, Fermata" lane="-9704050#1_0" startPos="96.11" endPos="111.11" friendlyPos="1" lines="706 701"/>
    <busStop id="-984712341" name="Sfazu, Fermata" lane="-904718445_0" startPos="57.96" endPos="72.96" friendlyPos="1" lines="703 706 701"/>
    <busStop id="-984712402" name="Sur GR Alp Flix, Tigias Hotel" lane="-116515434_0" startPos="0.00" endPos="6.18" friendlyPos="1" lines="188"/>
    <busStop id="-984712408" name="S. Carlo, Centro" lane="-208773094_0" startPos="0.00" endPos="6.02" friendlyPos="1" lines="702 706 701"/>
    <busStop id="-984712421" name="Raviscé" lane="-169639667_0" startPos="191.56" endPos="206.56" friendlyPos="1" lines="702"/>
    <busStop id="-984712425" name="Angeli Custodi" lane="-732209054#0_0" startPos="0.00" endPos="15.00" friendlyPos="1" lines="702"/>
    <busStop id="-984712437" name="Percosta, Val dal Teo" lane="-40086176#0_0" startPos="1442.99" endPos="1457.99" friendlyPos="1" lines="706 701"/>
    <busStop id="-984712522" name="Li Curt, Capitell" lane="-33590472#0_0" startPos="6.42" endPos="21.42" friendlyPos="1" lines="702"/>
    <busStop id="-984712596" name="S-chanf, Pradels" lane="-903746546#1_0" startPos="0.00" endPos="15.00" friendlyPos="1" lines="608"/>
    <busStop id="-984712685" name="Tinizong, Vardaval" lane="-1411974373#0_0" startPos="114.77" endPos="129.77" friendlyPos="1" lines="182"/>
    <busStop id="-984712717" name="Salouf, Pulens" lane="-1474671514_0" startPos="375.94" endPos="390.94" friendlyPos="1" lines="581"/>
    <busStop id="-984712725" name="Salouf, curt Del" lane="-1290257199#0_0" startPos="0.55" endPos="15.55" friendlyPos="1" lines="581"/>
    <busStop id="-984712730" name="Brail" lane="-1277640407#1_0" startPos="0.00" endPos="5.22" friendlyPos="1" lines="812"/>
    <busStop id="-984712742" name="Cunter, Mulegn" lane="-854030010_0" startPos="0.00" endPos="0.20" friendlyPos="1" lines="581"/>
    <busStop id="-984712802" name="Latsch" lane="-22529831#3_0" startPos="3.98" endPos="18.98" friendlyPos="1" lines="591"/>
    <busStop id="-984712814" name="Alvaneu Dorf, Dorfplatz" lane="-599591068_0" startPos="3.87" endPos="18.87" friendlyPos="1" lines="183 572"/>
    <busStop id="-984712814@8370993" name="Alvaneu Dorf, Dorfplatz" lane="-599591068_0" startPos="3.87" endPos="18.87" friendlyPos="1" lines="572"/>