<?xml version="1.0" encoding="UTF-8"?>

<!-- generated by Eclipse SUMO osmWebWizard.py v1_26_0+0000-fa7df22d7f1
<configuration>
    <net-file value="C:\Users\flori\AppData\Local\Programs\Microsoft VS Code\maloja\osm.net.xml.gz"/>
    <ptlines-file value="C:\Users\flori\AppData\Local\Programs\Microsoft VS Code\maloja\osm_ptlines.xml"/>
    <ptstops-file value="C:\Users\flori\AppData\Local\Programs\Microsoft VS Code\maloja\osm_stops.add.xml"/>
    <output-file value="C:\Users\flori\AppData\Local\Programs\Microsoft VS Code\maloja\osm_pt.rou.xml"/>
    <stopinfos-file value="C:\Users\flori\AppData\Local\Programs\Microsoft VS Code\maloja\stopinfos.xml"/>
    <routes-file value="C:\Users\flori\AppData\Local\Programs\Microsoft VS Code\maloja\vehroutes.xml"/>
    <trips-file value="C:\Users\flori\AppData\Local\Programs\Microsoft VS Code\maloja\trips.trips.xml"/>
    <end value="86400.0"/>
    <min-stops value="0"/>
    <extend-to-fringe value="True"/>
    <random-begin value="True"/>
    <seed value="42"/>
    <ignore-errors value="True"/>
    <vtype-prefix value="pt_"/>
    <verbose value="True"/>
</configuration>
-->

<routes xmlns:xsi="http://www.w3.org/2001/XMLSchema-instance" xsi:noNamespaceSchemaLocation="http://sumo.dlr.de/xsd/routes_file.xsd">
    <vType id="pt_bus" vClass="bus"/>
    <vType id="pt_tram" vClass="tram"/>
    <vType id="pt_train" vClass="rail"/>
    <vType id="pt_subway" vClass="subway"/>
    <vType id="pt_light_rail" vClass="rail_urban"/>
    <vType id="pt_monorail" vClass="rail_urban"/>
    <vType id="pt_trolleybus" vClass="bus"/>
    <vType id="pt_minibus" vClass="bus"/>
    <vType id="pt_share_taxi" vClass="taxi"/>
    <vType id="pt_aerialway" vClass="cable_car" length="2.5" width="2" personCapacity="4"/>
    <vType id="pt_ferry" vClass="ship"/>
    <route id="pt_bus_182:0" color="255,204,0" edges="519913263#0 519913263#1 519913259 903495401 894516575 268146935#0 -903531446 -120840710 -897592613 -904728442 -916468197 916468198#1 916468198#2 89724876#5 1189801664 1189801665 916468195#0 916468195#1 -631302139#4 -631302139#3 -631302139#2 -631302139#1 -631302139#0 -120840705#7 -120840705#6 -120840705#5 -120840705#4 -120840705#3 -120840705#2 -120840705#1 14014143#0 14014143#1 915198687#0 915198687#1 14014144#2 14014144#3 14014144#4 14014144#5 25303411#0 25303411#1 -1132581922 -1441721435 -382202904#4 -382202904#3 -382202904#2 -382202904#1 -382202904#0 -170952322#1 -170952322#0 -170952324#5 -170952324#3 -170952324#2 -170952324#1 -170952324#0 -19724261 769993301#0 769993301#1 769993301#2 769993301#3 754285231 543256262 543256263#2 543256263#3 -501346486 -89727905#1 -89727905#0 -1219872249#1 -1219872249#0 -1219872250 -30957907 -1219872251 -894841758 -209049898 -209049897 -72562012 -182550686#1 -182550686#0 182098926 209788024#0 209788024#1 182095936#0 182095936#1 -242860062 -612250569 1085798452 1085798451 1068941219#1 1068941219#2 1068941219#3 1068941219#4 1068941219#5 1068941219#6 1068941219#7 1068941219#8 1068941219#9 1068941218 612250570#0 612250570#1 612250570#2 612250570#3 612250570#4 612250570#5 612250570#6 851855595#1 851855595#2 897592615#1 897592615#2 -635442479 385385672#0 385385672#1 385385672#2 385385672#4 186141778#1 186141777#1 186141777#3 186141777#4 186141777#5 186141777#6 186141777#7 186141777#8 186141777#9 186141777#10 186141777#11 1084309621#1 1084309621#2 1084309621#3 1084309621#4 1084309621#5 216208528#1 216208528#2 230145652 1021510782#0 1021510782#1 170952333#0 170952333#1 851263768#0 851263767#0 851263767#1 851263767#2 851263767#3 851263767#4 216208533 897592617#0 897592617#1 897592616 230145667#0 230145667#1 230145667#2 230145667#3 230145667#4 1295353108#0 1295353108#1 1085798460 116515402#0 116515402#1 116515402#2 116515402#3 116515402#4 230145665#1 1474660846 230145668#1 915957807#1 1264442837 915957805 915957803#1 170975836#1 170975837#0 170975837#1 170975837#2 170975837#3 170975837#4 170975837#5 170975837#6 1098941474 908382536 897592620#0 897592620#1 897592620#2 897592620#3 897592619 230537757 897592618 -897592619 -897592620#3 -897592620#2 -897592620#1 -897592620#0 231854094#0 231854094#1 173177399 173177400#1 1098941473 1435042405 337361160 1435042406 1098941469#0 1098941469#1 1098941469#2 1098941469#3 1098941470 337361161#0 337361161#1 337361161#2 337361161#3 860315372#0 860315372#1 804684546#0 804684546#1 804684546#2 200854641#0 200854641#1 860315373#0 860315373#1 860315373#2 1264442839 216377528 216377524#0 216377524#1 216377524#2 216377524#3 14016931#0 14016931#1 14016931#2 14016931#3 14016931#4 1411974372 1411974373#0 1411974373#2 1264442841#0 1264442841#1 851211806#1 851211806#2 851211806#3 851211805#0 851211805#1 851211805#2 1447146867 804674021 804674020 1219873852 1219873851 1219873850 246065193#0 246065193#1 246065193#2 246065193#3 246065193#4 804905485 897592621#0 897592621#1 1471911982 200933441 1036240007#0 1036240007#1 1036240007#2 200933442#0 200933442#1 200933442#3 903403213 1264442842 1219874243 246065188#0 246065188#2 246065188#3 246065188#4 246065188#5 246065188#6 1219874242 1219874241 246065191 246065189 854030017 690955700 854030016#0 854030016#1 690955701#0 690955701#1 690955701#2 690955701#3 727906851#0 727906851#1 727906851#2 727906851#3 727906851#4 727906851#5 246065192#1 246065192#2 246065192#3 246065192#4 246065192#5 246065192#6 23044614#0 23044614#1 23044615#0 23044615#1 72060877#1 72060877#2 1219878700 1219878701#0 1219878701#1 1219878701#2 1219878701#3 1219878701#4 1219878701#5 76706439 1085798469 26592238#3 26592238#4 26592238#5 1085798466 472375539 9884026#0 9884026#1 9884026#2 596221476 472375537 472375538 316213621 689524678 390458386 596221449 596221490 596221483 472381594 690955699 -106642932 -813113275#3 -813113275#1 -813113275#0 -645430765#5 -645430765#4 -645430765#3 -645430765#2 -645430765#1 -645430765#0 -1182954789 -645430773 -541984156 -77047613#3 -77047613#2 -77047613#1 -77047613#0 -93469965#3 -93469965#2 -93469965#1 -93469965#0 -93467190 -127569289#2 -127569289#1 29377506#0 29377506#1 599970589 954879497 690134085#0 690134085#1 690134085#2 690134085#3 690134085#4 -30082066 -199799666 124064405 -75727881 30082066 897592624#1 897592624#2 897592624#3 897592624#4 897592624#6 897592624#7 897592624#8 897592624#9 897592624#10 897592624#11 897592624#12 897592624#13 1468627518 1347762750#0 690751814#1" >
        <stop busStop="5068626634@12214206" duration="20" until="38.0"/> <!-- St. Moritz Bahnhof -->
        <stop busStop="-4665151685" duration="20" until="226.0"/> <!-- St. Moritz Bad, Post -->
        <stop busStop="-821153295" duration="20" until="369.0"/> <!-- Campingplatz -->
        <stop busStop="5994227898" duration="20" until="645.0"/> <!-- Silvaplana, Lej Tscheppa -->
        <stop busStop="8162324350" duration="20" until="861.0"/> <!-- Alp Güglia -->
        <stop busStop="-5994130922" duration="20" until="979.0"/> <!-- Bivio, Las Colonnas/Passhohe -->
        <stop busStop="984713505" duration="20" until="1075.0"/> <!-- Julier, La Veduta -->
        <stop busStop="132997656" duration="20" until="1338.0"/> <!-- Bivio, Suracqua -->
        <stop busStop="9936214283" duration="20" until="1586.0"/> <!-- Bivio, Posta -->
        <stop busStop="984713429" duration="20" until="1714.0"/> <!-- Bivio, Stalvedro -->
        <stop busStop="984713438" duration="20" until="1848.0"/> <!-- Marmorera, vischnanca -->
        <stop busStop="984713448" duration="20" until="1975.0"/> <!-- Marmorera, rampar/Staudamm -->
        <stop busStop="984713451" duration="20" until="2066.0"/> <!-- Marmorera, Scalotta -->
        <stop busStop="292675892" duration="20" until="2184.0"/> <!-- Sur, plazza dalla posta -->
        <stop busStop="1633936240" duration="20" until="2301.0"/> <!-- Mulegns -->
        <stop busStop="984713058" duration="20" until="2577.0"/> <!-- Rona, Vischnanca -->
        <stop busStop="984712685" duration="20" until="2729.0"/> <!-- Tinizong, Vardaval -->
        <stop busStop="984713748" duration="20" until="2829.0"/> <!-- Tinizong, Curtinatsch -->
        <stop busStop="984713005" duration="20" until="2889.0"/> <!-- Tinizong, Tga Communala -->
        <stop busStop="345352138" duration="20" until="2956.0"/> <!-- Cadras -->
        <stop busStop="831897878" duration="20" until="3082.0"/> <!-- Savognin, Posta -->
        <stop busStop="4726149882" duration="20" until="3162.0"/> <!-- Savognin, Cresta -->
        <stop busStop="984713292" duration="20" until="3262.0"/> <!-- Cunter, vischnanca -->
        <stop busStop="984713754" duration="20" until="3331.0"/> <!-- Cunter, Dafora -->
        <stop busStop="984713400" duration="20" until="3455.0"/> <!-- Cunter, Burvagn -->
        <stop busStop="903915462" duration="20" until="3787.0"/> <!-- Tiefencastel, Dorf -->
        <stop busStop="291628967" duration="20" until="3873.0"/> <!-- Tiefencastel, staziun -->
        <stop busStop="-903916646" duration="20" until="4077.0"/> <!-- Vazerol -->
        <stop busStop="-5303364150" duration="20" until="4174.0"/> <!-- Lantsch/Lenz, Sozas -->
        <stop busStop="331339192" duration="20" until="4274.0"/> <!-- Lantsch/Lenz, Sudem Vischnanca -->
        <stop busStop="331339240" duration="20" until="4359.0"/> <!-- Lantsch/Lenz, Vischnanca -->
        <stop busStop="1381741108" duration="20" until="4425.0"/> <!-- Lantsch/Lenz, Barbatschauns -->
        <stop busStop="5303347931" duration="20" until="4504.0"/> <!-- Lantsch/Lenz, Biathlon Arena -->
    </route>
    <route id="pt_bus_182:1" color="255,204,0" edges="-690751814#1 -1347762750#0 -1468627518 -897592624#13 -897592624#12 -897592624#11 -897592624#10 -897592624#9 -897592624#8 -897592624#7 -897592624#6 -897592624#4 -897592624#3 -897592624#2 -897592624#1 -30082066 -199799666 124064405 -75727881 30082066 -690134082 -690134085#3 -690134085#2 -690134085#1 -690134085#0 -954879497 -954879498 -29377506#1 -29377506#0 127569289#1 127569289#2 93467190 93469965#0 93469965#1 93469965#2 93469965#3 77047613#0 77047613#1 77047613#2 77047613#3 541984156 645430773 1182954789 1347762175 645430765#1 645430765#2 645430765#3 645430765#4 645430765#5 813113275#0 813113275#1 813113275#3 106642932 -390458331 -472381594 -596221483 -596221490 596221490 -596221454#1 -596221454#0 -689524678 -106642933 -472375538 69158836 -9884026#2 -9884026#1 -9884026#0 -472375539 1085798467 26592238#1 1385088287 -76706439 -1219878701#5 -1219878701#4 -1219878701#3 -1219878701#2 -1219878701#1 -1219878701#0 -1219878700 -72060877#2 -72060877#1 -72060877#0 -23044615#0 -23044614#1 -23044614#0 -246065192#6 -246065192#5 -246065192#4 -246065192#3 -246065192#2 -246065192#1 -246065192#0 -727906851#4 -727906851#3 -727906851#2 -727906851#1 -727906851#0 -690955701#3 -690955701#2 -690955701#1 -690955701#0 -854030016#1 -854030016#0 -690955700 -854030017 -246065189 -246065191 -1219874241 -1219874242 -246065188#6 -246065188#5 -246065188#4 -246065188#3 -246065188#2 -246065188#0 -1219874243 -1264442842 -903403213 -200933442#3 -200933442#1 -200933442#0 -1036240007#2 -1036240007#1 -1036240007#0 -200933441 -1471911982 -897592621#1 -897592621#0 -804905485 -246065193#4 -246065193#3 -246065193#2 -246065193#1 -246065193#0 -1219873850 -1219873851 -1219873852 -804674020 -804674021 -1219873853 -851211805#2 -851211805#1 -851211805#0 -851211806#3 -851211806#2 -851211806#1 -1264442841#1 -1264442841#0 -110182992 -1411974373#0 -1411974372 -14016931#4 -14016931#3 -14016931#2 -14016931#1 -14016931#0 -1264442840 -216377524#2 -216377524#1 -216377524#0 216377526 -1264442839 -860315373#2 -860315373#1 -860315373#0 -200854641#1 -200854641#0 -200854642 -804684546#1 -804684546#0 -860315372#1 -860315372#0 -337361161#3 -337361161#2 -337361161#1 -337361161#0 -1098941470 -1098941469#3 -1098941469#2 -1098941469#1 -1098941469#0 -1435042406 -337361160 -1435042405 -1098941473 -173177400#1 -173177400#0 -231854094#1 -231854094#0 897592620#0 897592620#1 897592620#2 897592620#3 897592619 230537757 897592618 -897592619 -897592620#3 -897592620#2 -897592620#1 -897592620#0 -908382536 -908382537 -170975837#6 -170975837#5 -170975837#4 -170975837#3 -170975837#2 -170975837#1 -170975837#0 -170975836#1 -170975836#0 -915957803#0 -1264442837 -915957807#1 -915957807#0 -230145668#0 -230145665#1 -230145665#0 -116515402#3 -116515402#2 -116515402#1 -116515402#0 -1085798460 -1295353108#1 -1295353108#0 -230145667#4 -230145667#3 -230145667#2 -230145667#1 -230145667#0 -897592616" >
        <stop busStop="-5303347931" duration="20" until="38.0"/> <!-- Lantsch/Lenz, Biathlon Arena -->
        <stop busStop="-80118926" duration="20" until="110.0"/> <!-- Lantsch/Lenz, Barbatschauns -->
        <stop busStop="331339240" duration="20" until="182.0"/> <!-- Lantsch/Lenz, Vischnanca -->
        <stop busStop="-331339192" duration="20" until="264.0"/> <!-- Lantsch/Lenz, Sudem Vischnanca -->
        <stop busStop="5303364150" duration="20" until="363.0"/> <!-- Lantsch/Lenz, Sozas -->
        <stop busStop="331333771" duration="20" until="462.0"/> <!-- Vazerol -->
        <stop busStop="291628967" duration="20" until="675.0"/> <!-- Tiefencastel, staziun -->
        <stop busStop="903914770" duration="20" until="762.0"/> <!-- Tiefencastel, Dorf -->
        <stop busStop="-984713400" duration="20" until="1098.0"/> <!-- Cunter, Burvagn -->
        <stop busStop="-984713754" duration="20" until="1222.0"/> <!-- Cunter, Dafora -->
        <stop busStop="-984713292" duration="20" until="1290.0"/> <!-- Cunter, vischnanca -->
        <stop busStop="-4726149881" duration="20" until="1391.0"/> <!-- Savognin, Cresta -->
        <stop busStop="-831897878" duration="20" until="1477.0"/> <!-- Savognin, Posta -->
        <stop busStop="-345352138" duration="20" until="1600.0"/> <!-- Cadras -->
        <stop busStop="-984713005" duration="20" until="1668.0"/> <!-- Tinizong, Tga Communala -->
        <stop busStop="-984713748" duration="20" until="1726.0"/> <!-- Tinizong, Curtinatsch -->
        <stop busStop="-984712685" duration="20" until="1825.0"/> <!-- Tinizong, Vardaval -->
        <stop busStop="-984713058" duration="20" until="1978.0"/> <!-- Rona, Vischnanca -->
        <stop busStop="-1633936240" duration="20" until="2254.0"/> <!-- Mulegns -->
        <stop busStop="292675892" duration="20" until="2378.0"/> <!-- Sur, plazza dalla posta -->
        <stop busStop="-4495057016" duration="20" until="2481.0"/> <!-- Marmorera, Scalotta -->
        <stop busStop="-984713448" duration="20" until="2577.0"/> <!-- Marmorera, rampar/Staudamm -->
        <stop busStop="-984713438" duration="20" until="2704.0"/> <!-- Marmorera, vischnanca -->
        <stop busStop="-984713429" duration="20" until="2838.0"/> <!-- Bivio, Stalvedro -->
        <stop busStop="-9936214283" duration="20" until="2967.0"/> <!-- Bivio, Posta -->
    </route>
    <route id="pt_bus_182:2" color="255,204,0" edges="-690751814#1 -1347762750#0 -1468627518 -897592624#13 -897592624#12 -897592624#11 -897592624#10 -897592624#9 -897592624#8 -897592624#7 -897592624#6 -897592624#4 -897592624#3 -897592624#2 -897592624#1 -30082066 -199799666 124064405 -75727881 30082066 -690134082 -690134085#3 -690134085#2 -690134085#1 -690134085#0 -954879497 -954879498 -29377506#1 -29377506#0 127569289#1 127569289#2 93467190 93469965#0 93469965#1 93469965#2 93469965#3 77047613#0 77047613#1 77047613#2 77047613#3 541984156 645430773 1182954789 1347762175 645430765#1 645430765#2 645430765#3 645430765#4 645430765#5 813113275#0 813113275#1 813113275#3 106642932 -390458331 -472381594 -596221483 -596221490" >
        <stop busStop="-5303347931" duration="20" until="71.0"/> <!-- Lantsch/Lenz, Biathlon Arena -->
        <stop busStop="-80118926" duration="20" until="142.0"/> <!-- Lantsch/Lenz, Barbatschauns -->
        <stop busStop="331339240" duration="20" until="228.0"/> <!-- Lantsch/Lenz, Vischnanca -->
        <stop busStop="-331339192" duration="20" until="311.0"/> <!-- Lantsch/Lenz, Sudem Vischnanca -->
        <stop busStop="5303364150" duration="20" until="410.0"/> <!-- Lantsch/Lenz, Sozas -->
        <stop busStop="331333771" duration="20" until="509.0"/> <!-- Vazerol -->
        <stop busStop="-291628967" duration="20" until="718.0"/> <!-- Tiefencastel, staziun -->
    </route>
    <route id="pt_bus_182:3" color="255,204,0" edges="596221490 596221483 472381594 690955699 -106642932 -813113275#3 -813113275#1 -813113275#0 -645430765#5 -645430765#4 -645430765#3 -645430765#2 -645430765#1 -645430765#0 -1182954789 -645430773 -541984156 -77047613#3 -77047613#2 -77047613#1 -77047613#0 -93469965#3 -93469965#2 -93469965#1 -93469965#0 -93467190 -127569289#2 -127569289#1 29377506#0 29377506#1 599970589 954879497 690134085#0 690134085#1 690134085#2 690134085#3 690134085#4 -30082066 -199799666 124064405 -75727881 30082066 897592624#1 897592624#2 897592624#3 897592624#4 897592624#6 897592624#7 897592624#8 897592624#9 897592624#10 897592624#11 897592624#12 897592624#13 1468627518 1347762750#0 690751814#1" >
        <stop busStop="291628967" duration="20" until="35.0"/> <!-- Tiefencastel, staziun -->
        <stop busStop="-903916646" duration="20" until="238.0"/> <!-- Vazerol -->
        <stop busStop="-5303364150" duration="20" until="335.0"/> <!-- Lantsch/Lenz, Sozas -->
        <stop busStop="331339192" duration="20" until="435.0"/> <!-- Lantsch/Lenz, Sudem Vischnanca -->
        <stop busStop="331339240" duration="20" until="521.0"/> <!-- Lantsch/Lenz, Vischnanca -->
        <stop busStop="1381741108" duration="20" until="588.0"/> <!-- Lantsch/Lenz, Barbatschauns -->
        <stop busStop="5303347931" duration="20" until="668.0"/> <!-- Lantsch/Lenz, Biathlon Arena -->
    </route>
    <route id="pt_bus_182:4" color="255,204,0" edges="897592616 230145667#0 230145667#1 230145667#2 230145667#3 230145667#4 1295353108#0 1295353108#1 1085798460 116515402#0 116515402#1 116515402#2 116515402#3 116515402#4 230145665#1 1474660846 230145668#1 915957807#1 1264442837 915957805 915957803#1 170975836#1 170975837#0 170975837#1 170975837#2 170975837#3 170975837#4 170975837#5 170975837#6 1098941474 908382536 897592620#0 897592620#1 897592620#2 897592620#3 897592619 230537757 897592618 -897592619 -897592620#3 -897592620#2 -897592620#1 -897592620#0 231854094#0 231854094#1 173177399 173177400#1 1098941473 1435042405 337361160 1435042406 1098941469#0 1098941469#1 1098941469#2 1098941469#3 1098941470 337361161#0 337361161#1 337361161#2 337361161#3 860315372#0 860315372#1 804684546#0 804684546#1 804684546#2 200854641#0 200854641#1 860315373#0 860315373#1 860315373#2 1264442839 216377528 216377524#0 216377524#1 216377524#2 216377524#3 14016931#0 14016931#1 14016931#2 14016931#3 14016931#4 1411974372 1411974373#0 1411974373#2 1264442841#0 1264442841#1 851211806#1 851211806#2 851211806#3 851211805#0 851211805#1 851211805#2 1447146867 804674021 804674020 1219873852 1219873851 1219873850 246065193#0 246065193#1 246065193#2 246065193#3 246065193#4 804905485 897592621#0 897592621#1 1471911982 200933441 1036240007#0 1036240007#1 1036240007#2 200933442#0 200933442#1 200933442#3 903403213 1264442842 1219874243 246065188#0 246065188#2 246065188#3 246065188#4 246065188#5 246065188#6 1219874242 1219874241 246065191 246065189 854030017 690955700 854030016#0 854030016#1 690955701#0 690955701#1 690955701#2 690955701#3 727906851#0 727906851#1 727906851#2 727906851#3 727906851#4 727906851#5 246065192#1 246065192#2 246065192#3 246065192#4 246065192#5 246065192#6 23044614#0 23044614#1 23044615#0 23044615#1 72060877#1 72060877#2 1219878700 1219878701#0 1219878701#1 1219878701#2 1219878701#3 1219878701#4 1219878701#5 76706439 1085798469 26592238#3 26592238#4 26592238#5 1085798466 472375539 9884026#0 9884026#1 9884026#2 596221476 472375537 472375538 316213621 689524678 390458386 596221449 596221490 596221483 472381594 690955699 -106642932 -813113275#3 -813113275#1 -813113275#0 -645430765#5 -645430765#4 -645430765#3 -645430765#2 -645430765#1 -645430765#0 -1182954789 -645430773 -541984156 -77047613#3 -77047613#2 -77047613#1 -77047613#0 -93469965#3 -93469965#2 -93469965#1 -93469965#0 -93467190 -127569289#2 -127569289#1 29377506#0 29377506#1 599970589 954879497 690134085#0 690134085#1 690134085#2 690134085#3 690134085#4 -30082066 -199799666 124064405 -75727881 30082066 897592624#1 897592624#2 897592624#3 897592624#4 897592624#6 897592624#7 897592624#8 897592624#9 897592624#10 897592624#11 897592624#12 897592624#13 1468627518 1347762750#0 690751814#1" >
        <stop busStop="9936214283" duration="20" until="31.0"/> <!-- Bivio, Posta -->
        <stop busStop="984713429" duration="20" until="161.0"/> <!-- Bivio, Stalvedro -->
        <stop busStop="984713438" duration="20" until="297.0"/> <!-- Marmorera, vischnanca -->
        <stop busStop="984713448" duration="20" until="424.0"/> <!-- Marmorera, rampar/Staudamm -->
        <stop busStop="984713451" duration="20" until="516.0"/> <!-- Marmorera, Scalotta -->
        <stop busStop="292675892" duration="20" until="636.0"/> <!-- Sur, plazza dalla posta -->
        <stop busStop="1633936240" duration="20" until="753.0"/> <!-- Mulegns -->
        <stop busStop="984713058" duration="20" until="1028.0"/> <!-- Rona, Vischnanca -->
        <stop busStop="984712685" duration="20" until="1181.0"/> <!-- Tinizong, Vardaval -->
        <stop busStop="984713748" duration="20" until="1281.0"/> <!-- Tinizong, Curtinatsch -->
        <stop busStop="984713005" duration="20" until="1340.0"/> <!-- Tinizong, Tga Communala -->
        <stop busStop="345352138" duration="20" until="1408.0"/> <!-- Cadras -->
        <stop busStop="831897878" duration="20" until="1535.0"/> <!-- Savognin, Posta -->
        <stop busStop="4726149882" duration="20" until="1616.0"/> <!-- Savognin, Cresta -->
        <stop busStop="984713292" duration="20" until="1717.0"/> <!-- Cunter, vischnanca -->
        <stop busStop="984713754" duration="20" until="1786.0"/> <!-- Cunter, Dafora -->
        <stop busStop="984713400" duration="20" until="1911.0"/> <!-- Cunter, Burvagn -->
        <stop busStop="903915462" duration="20" until="2244.0"/> <!-- Tiefencastel, Dorf -->
        <stop busStop="291628967" duration="20" until="2331.0"/> <!-- Tiefencastel, staziun -->
        <stop busStop="-903916646" duration="20" until="2533.0"/> <!-- Vazerol -->
        <stop busStop="-5303364150" duration="20" until="2631.0"/> <!-- Lantsch/Lenz, Sozas -->
        <stop busStop="331339192" duration="20" until="2733.0"/> <!-- Lantsch/Lenz, Sudem Vischnanca -->
        <stop busStop="331339240" duration="20" until="2818.0"/> <!-- Lantsch/Lenz, Vischnanca -->
        <stop busStop="1381741108" duration="20" until="2883.0"/> <!-- Lantsch/Lenz, Barbatschauns -->
        <stop busStop="5303347931" duration="20" until="2964.0"/> <!-- Lantsch/Lenz, Biathlon Arena -->
    </route>
    <route id="pt_bus_182:5" color="255,204,0" edges="-690751814#1 -1347762750#0 -1468627518 -897592624#13 -897592624#12 -897592624#11 -897592624#10 -897592624#9 -897592624#8 -897592624#7 -897592624#6 -897592624#4 -897592624#3 -897592624#2 -897592624#1 -30082066 -199799666 124064405 -75727881 30082066 -690134082 -690134085#3 -690134085#2 -690134085#1 -690134085#0 -954879497 -954879498 -29377506#1 -29377506#0 127569289#1 127569289#2 93467190 93469965#0 93469965#1 93469965#2 93469965#3 77047613#0 77047613#1 77047613#2 77047613#3 541984156 645430773 1182954789 1347762175 645430765#1 645430765#2 645430765#3 645430765#4 645430765#5 813113275#0 813113275#1 813113275#3 106642932 -390458331 -472381594 -596221483 -596221490 596221490 -596221454#1 -596221454#0 -689524678 -106642933 -472375538 69158836 -9884026#2 -9884026#1 -9884026#0 -472375539 1085798467 26592238#1 1385088287 -76706439 -1219878701#5 -1219878701#4 -1219878701#3 -1219878701#2 -1219878701#1 -1219878701#0 -1219878700 -72060877#2 -72060877#1 -72060877#0 -23044615#0 -23044614#1 -23044614#0 -246065192#6 -246065192#5 -246065192#4 -246065192#3 -246065192#2 -246065192#1 -246065192#0 -727906851#4 -727906851#3 -727906851#2 -727906851#1 -727906851#0 -690955701#3 -690955701#2 -690955701#1 -690955701#0 -854030016#1 -854030016#0 -690955700 -854030017 -246065189 -246065191 -1219874241 -1219874242 -246065188#6 -246065188#5 -246065188#4 -246065188#3 -246065188#2 -246065188#0 -1219874243 -1264442842 -903403213 -200933442#3 -200933442#1 -200933442#0 -1036240007#2 -1036240007#1 -1036240007#0 -200933441 -1471911982 -897592621#1 -897592621#0 -804905485 -246065193#4 -246065193#3 -246065193#2 -246065193#1 -246065193#0 -1219873850 -1219873851 -1219873852 -804674020 -804674021 -1219873853 -851211805#2 -851211805#1 -851211805#0 -851211806#3 -851211806#2 -851211806#1 -1264442841#1 -1264442841#0 -110182992 -1411974373#0 -1411974372 -14016931#4 -14016931#3 -14016931#2 -14016931#1 -14016931#0 -1264442840 -216377524#2 -216377524#1 -216377524#0 216377526 -1264442839 -860315373#2 -860315373#1 -860315373#0 -200854641#1 -200854641#0 -200854642 -804684546#1 -804684546#0 -860315372#1 -860315372#0 -337361161#3 -337361161#2 -337361161#1 -337361161#0 -1098941470 -1098941469#3 -1098941469#2 -1098941469#1 -1098941469#0 -1435042406 -337361160 -1435042405 -1098941473 -173177400#1 -173177400#0 -231854094#1 -231854094#0 897592620#0 897592620#1 897592620#2 897592620#3 897592619 230537757 897592618 -897592619 -897592620#3 -897592620#2 -897592620#1 -897592620#0 -908382536 -908382537 -170975837#6 -170975837#5 -170975837#4 -170975837#3 -170975837#2 -170975837#1 -170975837#0 -170975836#1 -170975836#0 -915957803#0 -1264442837 -915957807#1 -915957807#0 -230145668#0 -230145665#1 -230145665#0 -116515402#3 -116515402#2 -116515402#1 -116515402#0 -1085798460 -1295353108#1 -1295353108#0 -230145667#4 -230145667#3 -230145667#2 -230145667#1 -230145667#0 230145595 -897592617#1 -897592617#0 -230145586#0 216208527#1 -851263768#0 -170952333#1 -170952333#0 -1021510782#1 -1021510782#0 -230145652 -216208528#2 -216208528#1 -216208528#0 -1084309621#4 -1084309621#3 -1084309621#2 -1084309621#1 -1084309621#0 -186141777#10 -186141777#9 -186141777#8 -186141777#7 -186141777#6 -186141777#5 -186141777#4 -186141777#3 -186141777#2 -186141777#0 -186141778#0 -385385672#2 -385385672#1 -385385672#0 635442479 -897592615#2 -897592615#1 -897592615#0 -851855595#1 -851855595#0 -612250570#5 -612250570#4 -612250570#3 -612250570#2 -612250570#1 -612250570#0 -1068941218 -1068941219#9 -1068941219#8 -1068941219#7 -1068941219#6 -1068941219#5 -1068941219#4 -1068941219#3 -1068941219#2 -1068941219#1 -1068941219#0 -1085798452 612250569 1264442836 1136239035#0 1136239035#1 1136239036 -209788024#1 -209788024#0 -182098926 182550686#0 182550686#1 72562012 1219872252 209049898 894841758 1219872251 30957907 1219872250 1219872249#0 1219872249#1 89727907 89727905#1 501346486 543256263#4 915198667 915198663 769993301#5 19724261 170952324#0 170952324#1 170952324#2 170952324#3 170952324#5 170952322#0 170952322#1 382202904#0 382202904#1 382202904#2 382202904#3 382202904#4 1441721435 1132581922 -914487470 -25303411#0 14014144#0 915198685#0 915198685#1 -14014143#1 -14014143#0 120840705#1 120840705#2 120840705#3 120840705#4 120840705#5 120840705#6 120840705#7 631302139#0 631302139#1 631302139#2 631302139#3 631302139#4 916468196#0 916468196#1 89724876#1 89724876#2 89724876#3 72562096#0 916468197 904728442 897592613 519913263#0 519913263#1" >
        <stop busStop="-5303347931" duration="20" until="37.0"/> <!-- Lantsch/Lenz, Biathlon Arena -->
        <stop busStop="-80118926" duration="20" until="108.0"/> <!-- Lantsch/Lenz, Barbatschauns -->
        <stop busStop="331339240" duration="20" until="181.0"/> <!-- Lantsch/Lenz, Vischnanca -->
        <stop busStop="-331339192" duration="20" until="264.0"/> <!-- Lantsch/Lenz, Sudem Vischnanca -->
        <stop busStop="5303364150" duration="20" until="363.0"/> <!-- Lantsch/Lenz, Sozas -->
        <stop busStop="331333771" duration="20" until="462.0"/> <!-- Vazerol -->
        <stop busStop="291628967" duration="20" until="674.0"/> <!-- Tiefencastel, staziun -->
        <stop busStop="903914770" duration="20" until="752.0"/> <!-- Tiefencastel, Dorf -->
        <stop busStop="-984713400" duration="20" until="1089.0"/> <!-- Cunter, Burvagn -->
        <stop busStop="-984713754" duration="20" until="1217.0"/> <!-- Cunter, Dafora -->
        <stop busStop="-984713292" duration="20" until="1286.0"/> <!-- Cunter, vischnanca -->
        <stop busStop="-4726149881" duration="20" until="1388.0"/> <!-- Savognin, Cresta -->
        <stop busStop="-831897878" duration="20" until="1473.0"/> <!-- Savognin, Posta -->
        <stop busStop="-345352138" duration="20" until="1595.0"/> <!-- Cadras -->
        <stop busStop="-984713005" duration="20" until="1662.0"/> <!-- Tinizong, Tga Communala -->
        <stop busStop="-984713748" duration="20" until="1723.0"/> <!-- Tinizong, Curtinatsch -->
        <stop busStop="-984712685" duration="20" until="1821.0"/> <!-- Tinizong, Vardaval -->
        <stop busStop="-984713058" duration="20" until="1973.0"/> <!-- Rona, Vischnanca -->
        <stop busStop="-1633936240" duration="20" until="2249.0"/> <!-- Mulegns -->
        <stop busStop="292675892" duration="20" until="2374.0"/> <!-- Sur, plazza dalla posta -->
        <stop busStop="-4495057016" duration="20" until="2477.0"/> <!-- Marmorera, Scalotta -->
        <stop busStop="-984713448" duration="20" until="2572.0"/> <!-- Marmorera, rampar/Staudamm -->
        <stop busStop="-984713438" duration="20" until="2698.0"/> <!-- Marmorera, vischnanca -->
        <stop busStop="-984713429" duration="20" until="2832.0"/> <!-- Bivio, Stalvedro -->
        <stop busStop="984712824" duration="20" until="2966.0"/> <!-- Bivio, Posta -->
        <stop busStop="-132997656" duration="20" until="3212.0"/> <!-- Bivio, Suracqua -->
        <stop busStop="-984713505" duration="20" until="3475.0"/> <!-- Julier, La Veduta -->
        <stop busStop="5994130922" duration="20" until="3577.0"/> <!-- Bivio, Las Colonnas/Passhohe -->
        <stop busStop="-8162324350" duration="20" until="3691.0"/> <!-- Alp Güglia -->
        <stop busStop="-5994227898" duration="20" until="3908.0"/> <!-- Silvaplana, Lej Tscheppa -->