<?xml version="1.0" encoding="UTF-8"?>

<!-- generated by Eclipse SUMO netedit 1.26.0
-->

<additional xmlns:xsi="http://www.w3.org/2001/XMLSchema-instance" xsi:noNamespaceSchemaLocation="http://sumo.dlr.de/xsd/additional_file.xsd">
    <busStop id="vbs_St_Moritz_extra_cap" lane="519913265#1_0" startPos="0.00" endPos="20"/>
    
    <busStop id="vbs_ski_corviglia_valley_chantarella" lane="-210208895_0" startPos="13.71" endPos="23.71"/>
    <busStop id="vbs_ski_corviglia_valley_chasellas" lane="740109140_0" startPos="15.48" endPos="25.48"/>
    <busStop id="vbs_ski_corviglia_valley_salastrains" lane="-1113164891_0" startPos="14.64" endPos="24.64"/>
    
    <busStop id="vbs_mp1" lane="175833048_0" startPos="79.81" endPos="89.81"/>
    <busStop id="vbs_mp2" lane="-69218976#0_0" startPos="88.33" endPos="98.33"/>
</additional>
