<?xml version="1.0" encoding="UTF-8"?>

<!-- generated by Eclipse SUMO duarouter Version 1.12.0
<configuration xmlns:xsi="http://www.w3.org/2001/XMLSchema-instance" xsi:noNamespaceSchemaLocation="http://sumo.dlr.de/xsd/duarouterConfiguration.xsd">

    <input>
        <net-file value="D:\Dokumente\sumo\maloja\simple.net.xml"/>
        <additional-files value="D:\Dokumente\sumo\maloja\taz_maloja_simple.add.xml,D:\Dokumente\sumo\maloja\03_bus\virtualstop.add.xml,D:\Dokumente\sumo\maloja\03_bus\01_February\vtypes.xml,D:\Dokumente\sumo\maloja\03_bus\01_February\gtfs_pt_stops.add.xml"/>
        <route-files value="D:\Dokumente\sumo\maloja\02_work\persontrips_maloja_work_modded.xml,D:\Dokumente\sumo\maloja\03_bus\01_February\gtfs_pt_vehicles.add.xml"/>
    </input>

    <output>
        <output-file value="D:\Dokumente\sumo\maloja\02_work\persontrips_maloja_work_resolved_winter_bus.rou.xml"/>
        <alternatives-output value="D:\Dokumente\sumo\maloja\02_work\persontrips_maloja_work_resolved_winter_bus.rou.alt.xml"/>
    </output>

    <processing>
        <persontrip.transfer.taxi-walk value="ptStops"/>
        <persontrip.transfer.walk-taxi value="ptStops"/>
    </processing>

    <report>
        <verbose value="true"/>
    </report>

</configuration>
-->

<routes xmlns:xsi="http://www.w3.org/2001/XMLSchema-instance" xsi:noNamespaceSchemaLocation="http://sumo.dlr.de/xsd/routes_file.xsd">
    <person id="6" depart="21655.65" departPos="random">
        <walk edges="-1083299691#0 120840215 -502426855#2 -502426855#1" busStop="19.TA.96-290-0-j24-1.32.H.25"/> <!-- Vicosoprano, Helvetia -->
        <ride busStop="19.TA.96-290-0-j24-1.32.H.31" lines="19.TA.96-290-0-j24-1.32.H" intended="19.TA.96-290-0-j24-1.32.H.0" depart="27470.00"/> <!-- Promontogno, Punt Spizarun -->
        <walk edges="1426892794#3 1426892796 1426892784 1426892791 1426892783 1426892797 -1024855417 -1426892804 1424064286 -429497064 -1426892773 -429497063#1 429497063#0 1187206777 370855281#7 -370855281#6 370855281#5 -370855281#4 -370855281#3 -370855281#2 370855281#1 -370855281#0 1083261779 -1083261781#1 1083261781#0 1083261780 -429497062#1 -429497062#0 -1083277954 62065386 120839520 -41157381 171771447#1 171771447#2 -171771447#3 890086160#0 890086160#1 -890086160#2 1083269027#1 1083269027#0" arrivalPos="7.84"/>
    </person>
    <person id="582" depart="21673.98" departPos="random">
        <walk edges="-25366042#2 -25366042#1 25366042#0 268146940#5 -268146940#4 268146940#3 268146940#2 -578147406 1005048062#1 -1005048061#0 1005048061#1 -1005048061#2 -152522410#1 819942940#1 819942940#0 -1005052428#2 1005052428#1 -41595601#5 41595601#4 41595601#3 -41595601#2 41595601#0 819945210#0 -1467922383 819945211 -819945212 -1113054109 152331922#0 152331922#1 -1113054108#0 -1113054108#1 -120840705#4 -120840705#3 120840705#2 120840705#1 -1113136564#1 -1113136564#0 89726026#3 89726026#2 -89726026#1 -89726026#0 51814854 30957915 -1132581922 1441721435 -382202904#4 382202904#3 -382202904#2 -382202904#1 382202904#0 -170952322#1 170952322#0 170952324#5 -170952324#3 170952324#2 -170952324#1" busStop="101.TA.92-1-N-j24-1.1.H.9"/> <!-- St. Moritz Bad, Via San Gian -->
        <ride busStop="342.TA.92-10-J-j24-1.9.H.20" lines="1576.TA.92-6-I-j24-1.41.H" intended="1576.TA.92-6-I-j24-1.41.H.0" depart="24590.00"/> <!-- Champfèr, Schulhaus -->
        <walk edges="30952515#0 -30952515#1 1068735331 30984018#0 30984018#1" arrivalPos="16.78"/>
    </person>
    <person id="98" depart="21689.60" departPos="random">
        <walk edges="890739709#1 -890739709#1 -123066701#0 -123066701#1 123066701#2 -123066701#3 -123066701#4 1458236898 1083273110#1 -1083273110#2 -1083273110#3 -1085583302#0 1083273109 1083299692 123066460 1083273108#2 -1083273108#3 1069366694#1 1069366694#2 -1069366694#3 1069366694#4 1443580513#0 -1443580513#1 1443580513#2" busStop="48.TA.96-290-0-j24-1.17.R.11"/> <!-- Pranzaira, Albigna -->
        <ride busStop="48.TA.96-290-0-j24-1.17.R.17" lines="51.TA.96-290-0-j24-1.29.R" intended="52.TA.96-290-0-j24-1.29.R.0" depart="24770.00"/> <!-- Maloja, Cad'Maté -->
        <walk edges="977972909 -315159485#0 -315159485#1 315159485#2 315159485#3 315159485#4 -315159485#5 -315159485#6 1068729371#0 -1068729371#1 -1068729371#2 170952349#0 -170952349#1 -977972910" busStop="919.TA.92-10-J-j24-1.22.R.0"/> <!-- Maloja, Posta -->
        <ride busStop="1014.TA.92-1-N-j24-1.12.H.14" lines="51.TA.96-290-0-j24-1.29.R" intended="52.TA.96-290-0-j24-1.29.R.0" depart="26210.00"/> <!-- St. Moritz, Bahnhof -->
        <walk edges="519913263#1 519913263#0 897592613 904728442 519913257#0 519913257#1" arrivalPos="1.30"/>
    </person>
    <person id="300" depart="21749.63" departPos="random">
        <walk edges="152336655#1 -152336655#0 152336656#2 152336656#0 391952926#1 391952926#2 -391952926#3 -39830434#2 39830434#1 39830434#0 268146940#2 -578147406 1005048062#1 -1005048061#0 1005048061#1 -1005048061#2 -152522410#1 819942940#1 819942940#0 -1005052428#2 1005052428#1 -41595601#5 41595601#4 41595601#3 -41595601#2 41595601#0 819945210#0 -1467922383 819945211 -819945212 -1113054109 152331922#0 152331922#1 -1113054108#0 -1113054108#1 -120840705#4 -120840705#3 120840705#2 120840705#1 -1113136564#1 -1113136564#0 89726026#3 89726026#2 -89726026#1 -89726026#0 51814854 30957915 -1132581922 1441721435 -382202904#4 382202904#3 -382202904#2 -382202904#1 382202904#0 -170952322#1 170952322#0 170952324#5 -170952324#3 170952324#2 -170952324#1" busStop="101.TA.92-1-N-j24-1.1.H.9"/> <!-- St. Moritz Bad, Via San Gian -->
        <ride busStop="1014.TA.92-1-N-j24-1.12.H.28" lines="1576.TA.92-6-I-j24-1.41.H" intended="1576.TA.92-6-I-j24-1.41.H.0" depart="24590.00"/> <!-- Surlej, Foppas -->
        <walk edges="30957916#1 -96461188 30957932#0 -30957932#1 30957932#2 -30957932#3 30957932#4 -30957932#5" arrivalPos="31.47"/>
    </person>
    <person id="38" depart="21758.69" departPos="random">
        <walk edges="171771428#3 -171771428#3 171771398 -889967615 -171771447#5 171771447#4 -171771447#3 171771447#2 171771447#1 -41157381 120839520 62065386 -1083277954 -429497062#0 -429497062#1 1083261780 -1083261781#0 -1083261781#1 1083261779 -370855281#0 370855281#1 -370855281#2 -370855281#3 -370855281#4 370855281#5 -370855281#6 370855281#7 -1187206777 429497063#0 -429497063#1 -1426892773 -429497064 1424064286 -1426892804 -1024855417 1426892797 1426892783 1426892779 472298258 1104477696 -171771381#0 171771381#1 -171771381#2 23844223 -23844224 -120840218#0 120840218#1 -120840218#2 -120840218#3 -120840218#4 391657349 502426851#0" busStop="48.TA.96-290-0-j24-1.17.R.4"/> <!-- Stampa, Palù -->
        <ride busStop="48.TA.96-290-0-j24-1.17.R.9" lines="51.TA.96-290-0-j24-1.29.R" intended="51.TA.96-290-0-j24-1.29.R.0" depart="27410.00"/> <!-- Vicosoprano, Plazza -->
        <walk edges="890169725#1 -890169725#0 890169724#2" arrivalPos="16.52"/>
    </person>
    <person id="62" depart="21807.72" departPos="random">
        <walk edges="1162538599#3 -1162538599#2 -1162538599#1 365973802 1083351543#1 1083351543#0 186947409 -186140135#0 186140135#1 186140135#2" busStop="48.TA.96-290-0-j24-1.17.R.1"/> <!-- Castasegna, Farzett -->
        <ride busStop="48.TA.96-290-0-j24-1.17.R.17" lines="51.TA.96-290-0-j24-1.29.R" intended="52.TA.96-290-0-j24-1.29.R.0" depart="23690.00"/> <!-- Maloja, Cad'Maté -->
        <walk edges="977972909 -315159485#0 -315159485#1 315159485#2 315159485#3 315159485#4 -315159485#5 -315159485#6 1068729371#0 -1068729371#1 -1068729371#2 170952349#0 -170952349#1 -977972910" busStop="919.TA.92-10-J-j24-1.22.R.0"/> <!-- Maloja, Posta -->
        <ride busStop="919.TA.92-10-J-j24-1.22.R.5" lines="51.TA.96-290-0-j24-1.29.R" intended="52.TA.96-290-0-j24-1.29.R.0" depart="26210.00"/> <!-- Sils/Segl Maria, Posta -->
        <walk edges="209755663#3 209755663#2 -209755663#0 1317098557 59637812#0 59637812#1 -59637812#2 -59637812#3 59637812#4 -59637812#5 59637812#7 -59637812#8 59637812#9 -59637812#10 -1086010084 -1086010083 -175833044#1 175833044#0 175833041 241932762#4 241932762#3 -241932762#2 241932762#1 241932762#0 -426408082#1 426408082#0" arrivalPos="0.59"/>
    </person>
    <person id="214" depart="21815.86" departPos="random">
        <walk edges="-851855595#0 -612250570#5 612250570#4 -612250570#3 -612250570#2 -612250570#1 612250570#0 1068941218 -1068941219#9 -1068941219#8 -1068941219#7 1068941219#6 1068941219#5 1068941219#4 -1068941219#3 -1068941219#2 -1068941219#1 1085798451 -645951511#0 1430507283 -186141915#1 186141915#0 -31061889#4 -31061889#3 31061889#2 31061889#0 31061888#1 116715858 147218475#2 -147218475#0 1086005527#0 1086005528 14014136#0 1136237770 1086005533" busStop="2340.TA.92-1-N-j24-1.24.R.2"/> <!-- Silvaplana, Rundella Curtins -->
        <ride busStop="1599.TA.92-1-N-j24-1.13.R.1" lines="2340.TA.92-1-N-j24-1.24.R" intended="2356.TA.92-1-N-j24-1.24.R.0" depart="28970.00"/> <!-- St. Moritz Bad, Hallenbad -->
        <ride busStop="1599.TA.92-1-N-j24-1.13.R.2" lines="186.TA.92-9-H-j24-1.2.H" intended="661.TA.92-9-H-j24-1.2.H.0" depart="29390.00"/> <!-- St. Moritz Bad, Sonne -->
        <ride busStop="1014.TA.92-1-N-j24-1.12.H.14" lines="2340.TA.92-1-N-j24-1.24.R" intended="2356.TA.92-1-N-j24-1.24.R.0" depart="29510.00"/> <!-- St. Moritz, Bahnhof -->
        <walk edges="519913263#1 519913263#0 897592613 904728442 916468197 72562096#0 89724876#3 916015460#1 916015460#0 1189801663 -268776830#1 268776830#0 888359128#3 14014151 1127470775" arrivalPos="29.19"/>
    </person>
    <person id="592" depart="21912.99" departPos="random">
        <walk edges="-239178470#3 -239178470#2 239178470#1 239178470#0 -170952324#5 170940321#1 -170940321#0" busStop="1599.TA.92-1-N-j24-1.13.R.1"/> <!-- St. Moritz Bad, Hallenbad -->
        <ride busStop="1599.TA.92-1-N-j24-1.13.R.4" lines="3135.TA.92-6-I-j24-1.25.R" intended="3135.TA.92-6-I-j24-1.25.R.0" depart="22190.00"/> <!-- St. Moritz Bad, Via Salet -->
        <walk edges="25303487#3 -25303487#4 154770319#0 154770319#1 154770319#2 -154770319#3 154770319#4 1068735334 69347933#0 -69347933#1 -188730896#0 -188730896#1 -188730896#2 188730896#3 -188730896#4 188730896#5 -188730896#6 740109140 -188730894#0 -188730894#1 -69347929" arrivalPos="12.26"/>
    </person>
    <person id="220" depart="21942.87" departPos="random">
        <walk edges="-185833037 -1437116752#0 -186141915#1 186141915#0 -31061889#4 -31061889#3 31061889#2 31061889#0 31061888#1 116715858 147218475#2 -147218475#0 1086005527#0 1086005528 14014136#0 1136237770 1086005533" busStop="2340.TA.92-1-N-j24-1.24.R.2"/> <!-- Silvaplana, Rundella Curtins -->
        <ride busStop="1599.TA.92-1-N-j24-1.13.R.0" lines="2.TA.92-4-Q-j24-1.2.R" intended="2.TA.92-4-Q-j24-1.2.R.0" depart="23990.00"/> <!-- St. Moritz Bad, Via San Gian -->
        <walk edges="170952324#1 170952324#0 19724261 769993301#0 915198669 915198670 915198665#1 915198665#0 -915198676#0 915198676#2 19724000#2 30957908#1 -977370315 30957910#0 -30957910#1 -30957910#2 -1116543561#0" arrivalPos="16.03"/>
    </person>
    <person id="477" depart="21955.36" departPos="random">
        <walk edges="-189023055#0 189023055#0 -1318101192 -1318101191#1 232471144#2 232471144#1 -232471144#0 -1127470773 14014151 888359128#3 268776830#0 -268776830#1 1189801663 916015460#0 916015460#1 89724876#3 89724876#4 89724876#5 1189801664 1189801665 916468195#0 916468196#0 631302139#4 -631302139#3 631302139#2 -631302139#1 -631302139#0 120840705#7 -120840705#6 120840705#5 -120840705#4 -120840705#3 120840705#2 120840705#1 -1113136564#1 -1113136564#0 89726026#3 89726026#2 -89726026#1 -89726026#0 51814854 30957915 -1132581922 1441721435 -382202904#4 382202904#3 -382202904#2 -382202904#1 382202904#0 -170952322#1 170952322#0 170952324#5 -170952324#3 170952324#2 -170952324#1" busStop="101.TA.92-1-N-j24-1.1.H.9"/> <!-- St. Moritz Bad, Via San Gian -->
        <ride busStop="342.TA.92-10-J-j24-1.9.H.20" lines="1576.TA.92-6-I-j24-1.41.H" intended="1576.TA.92-6-I-j24-1.41.H.0" depart="24590.00"/> <!-- Champfèr, Schulhaus -->
        <walk edges="30952515#0 -72562019#0" arrivalPos="2.51"/>
    </person>
    <person id="8" depart="21981.92" departPos="random">
        <walk edges="502426860#1 -502426860#0 -502426859#5 502426859#4 502426859#2 -502426859#1 502426859#0 1069366698 502426858 -903495400 502426857#2 -502426857#1 502426857#0 -366854450#1 430248865#14 430248865#12 -430248865#11 -430248865#10 430248865#9 -430248865#8 430248865#7 -430248865#6 430248865#5 -430248865#4 -430248865#3 -430248865#2 -430248865#1 430248865#0 -1069366696 -1083812970#2 -1083812970#1 -1083812970#0 1083812969 -120840216#3 -120840216#2 120840216#1 120840216#0 -1443580512#4 1443580512#3 -1443580512#2 -1443580512#1 -1443580512#0 -1443580513#3 -1443580513#2" busStop="19.TA.96-290-0-j24-1.32.H.22"/> <!-- Pranzaira, Albigna -->
        <ride busStop="19.TA.96-290-0-j24-1.32.H.31" lines="19.TA.96-290-0-j24-1.32.H" intended="19.TA.96-290-0-j24-1.32.H.0" depart="27170.00"/> <!-- Promontogno, Punt Spizarun -->
        <walk edges="1426892794#3 71759543#0 -71759543#1 71759543#2 -71759543#3 522706570#0 -522706566#1 522706566#0 -522706560#0" arrivalPos="0.16"/>
    </person>
    <person id="517" depart="22041.84" departPos="random">
        <walk edges="60103241 -152516779#0 -152337234#1 152337234#0 25412019 152337236#1 -41595601#5 41595601#4 41595601#3 -41595601#2 41595601#0 819945210#0 -1467922383 819945211 -819945212 -1113054109 152331922#0 152331922#1 -1113054108#0 -1113054108#1 -120840705#4 -120840705#3 120840705#2 120840705#1 -1113136564#1 -1113136564#0 89726026#3 89726026#2 -89726026#1 -89726026#0 51814854 30957915 -1132581922 1441721435 -382202904#4 382202904#3 -382202904#2 -382202904#1 382202904#0 -170952322#1 170952322#0 170952324#5 -170952324#3 170952324#2 -170952324#1" busStop="101.TA.92-1-N-j24-1.1.H.9"/> <!-- St. Moritz Bad, Via San Gian -->
        <ride busStop="342.TA.92-10-J-j24-1.9.H.21" lines="1576.TA.92-6-I-j24-1.41.H" intended="1576.TA.92-6-I-j24-1.41.H.0" depart="24590.00"/> <!-- Champfèr, Guardalej -->
        <walk edges="-1068735330#1 -1068735330#2 1068735330#4 -1068735330#5 -209049905#0 -30984005" arrivalPos="11.81"/>
    </person>
    <person id="1" depart="22076.94" departPos="random">
        <walk edges="-1083277950 391661586" busStop="19.TA.96-290-0-j24-1.32.H.34"/> <!-- Castasegna, Vecchia Dogana -->
        <ride busStop="48.TA.96-290-0-j24-1.17.R.17" lines="51.TA.96-290-0-j24-1.29.R" intended="52.TA.96-290-0-j24-1.29.R.0" depart="23570.00"/> <!-- Maloja, Cad'Maté -->
        <walk edges="977972909 -315159485#0 -315159485#1 315159485#2 315159485#3 315159485#4 -315159485#5 -315159485#6 1068729371#0 -1068729371#1 -1068729371#2 -315159490 -315159487#7 315159487#6 -315159487#5 315159487#4 -315159487#3 315159487#2 315159487#1 -315159487#0 308250435#3 308250435#2 -308250435#1 308250435#0 -71189943#1 71189943#0 -307930214 1068735315#1 -1068735315#0 -1085975993 349887484 507648839 -175833050 -349888201#1 349888201#0 18883232#3 18883232#1 256980712" arrivalPos="78.55"/>
    </person>
    <person id="650" depart="22089.60" departPos="random">
        <walk edges="-1115015078#1 -1115015078#2 1115015078#3 1115015077#1 -1115015077#2 391952926#1 391952926#2 -391952926#3 -39830434#2 39830434#1 39830434#0 268146940#2 -578147406 1005048062#1 -1005048061#0 1005048061#1 -1005048061#2 -152522410#1 819942940#1 819942940#0 -1005052428#2 1005052428#1 -41595601#5 41595601#4 41595601#3 -41595601#2 41595601#0 819945210#0 -1467922383 819945211 -819942944#4" busStop="1599.TA.92-1-N-j24-1.13.R.6"/> <!-- St. Moritz, Schulhausplatz -->
        <ride busStop="1014.TA.92-1-N-j24-1.12.H.14" lines="2034.TA.92-1-N-j24-1.15.R" intended="2034.TA.92-1-N-j24-1.15.R.0" depart="23330.00"/> <!-- St. Moritz, Bahnhof -->
        <walk edges="519913263#1 519913263#0 897592613 519913261#0 519913261#1" arrivalPos="12.82"/>
    </person>
    <person id="89" depart="22091.59" departPos="random">
        <walk edges="1083276371#2 -1083276371#1 1083276371#0 1083351550#1 1083351550#0" busStop="48.TA.96-290-0-j24-1.17.R.7"/> <!-- Borgonovo, Villaggio -->
        <ride busStop="48.TA.96-290-0-j24-1.17.R.17" lines="51.TA.96-290-0-j24-1.29.R" intended="52.TA.96-290-0-j24-1.29.R.0" depart="24350.00"/> <!-- Maloja, Cad'Maté -->
        <walk edges="977972909 -315159485#0 -315159485#1 315159485#2 315159485#3 315159485#4 -315159485#5 -315159485#6 1068729371#0 -1068729371#1 -1068729371#2 170952349#0 -170952349#1 -977972910" busStop="919.TA.92-10-J-j24-1.22.R.0"/> <!-- Maloja, Posta -->
        <ride busStop="1014.TA.92-1-N-j24-1.12.H.14" lines="51.TA.96-290-0-j24-1.29.R" intended="52.TA.96-290-0-j24-1.29.R.0" depart="26210.00"/> <!-- St. Moritz, Bahnhof -->
        <walk edges="519913263#1 519913263#0 897592613 904728442 519913257#0 519913257#1" arrivalPos="16.21"/>
    </person>
    <person id="250" depart="22161.95" departPos="random">
        <walk edges="-1005048061#1 -1005048061#2 -152522410#1 819942940#1 819942940#0 -1005052428#2 1005052428#1 -41595601#5 41595601#4 41595601#3 -41595601#2 41595601#0 819945210#0 -1467922383 819945211 -819945212 -1113054109 152331922#0 152331922#1 -1113054108#0 -1113054108#1 -120840705#4 -120840705#3 120840705#2 120840705#1 -1113136564#1 -1113136564#0 89726026#3 89726026#2 -89726026#1 -89726026#0 51814854 30957915 -1132581922 1441721435 -382202904#4 382202904#3 -382202904#2 -382202904#1 382202904#0 -170952322#1 170952322#0 170952324#5 -170952324#3 170952324#2 -170952324#1" busStop="101.TA.92-1-N-j24-1.1.H.9"/> <!-- St. Moritz Bad, Via San Gian -->
        <ride busStop="1014.TA.92-1-N-j24-1.12.H.26" lines="1576.TA.92-6-I-j24-1.41.H" intended="1576.TA.92-6-I-j24-1.41.H.0" depart="24590.00"/> <!-- Silvaplana, Rundella Curtins -->
        <ride busStop="19.TA.96-290-0-j24-1.32.H.32" lines="19.TA.96-290-0-j24-1.32.H" intended="19.TA.96-290-0-j24-1.32.H.0" depart="25070.00"/> <!-- Castasegna, Farzett -->
        <walk edges="-186140135#2" arrivalPos="107.14"/>
    </person>
    <person id="61" depart="22187.91" departPos="random">
        <walk edges="70702070#0 208826840#2 -501346487 -315159496#0" busStop="919.TA.92-10-J-j24-1.22.R.1"/> <!-- Maloja, Capolago -->
        <ride busStop="919.TA.92-10-J-j24-1.22.R.4" lines="43.TA.96-290-0-j24-1.35.R" intended="47.TA.96-290-0-j24-1.35.R.0" depart="22730.00"/> <!-- Sils/Segl Baselgia, Biblioteca -->
        <ride busStop="919.TA.92-10-J-j24-1.22.R.5" lines="2.TA.92-4-Q-j24-1.2.R" intended="2.TA.92-4-Q-j24-1.2.R.0" depart="23270.00"/> <!-- Sils/Segl Maria, Posta -->
        <ride busStop="919.TA.92-10-J-j24-1.22.R.6" lines="43.TA.96-290-0-j24-1.35.R" intended="47.TA.96-290-0-j24-1.35.R.0" depart="23510.00"/> <!-- Sils/Segl Maria, Seglias -->
        <walk edges="1472605488#2 1472605488#1 1472605488#0 1201541125 52959697#0 52959697#1 52959697#2 -52959697#3 -56085325#0 -56085325#1 56085325#2 56085325#3 -56085325#4 -256959701#0" arrivalPos="7.84"/>
    </person>
    <person id="271" depart="22209.79" departPos="random">
        <walk edges="235361058#0 26167908#4 26167908#3 26167908#1 26167898#1 26167898#0 30957907 1219872251 235361066 -1435131955#2 1435131955#1 72562019#4 72562019#3 72562019#2 -72562019#1 72562019#0 72562018 1068735331 30957906 1068735330#7 -1068735330#5 1068735330#4 -1068735330#2 -1068735330#1" busStop="342.TA.92-10-J-j24-1.9.H.21"/> <!-- Champfèr, Guardalej -->
        <ride busStop="1014.TA.92-1-N-j24-1.12.H.26" lines="1576.TA.92-6-I-j24-1.41.H" intended="1576.TA.92-6-I-j24-1.41.H.0" depart="24830.00"/> <!-- Silvaplana, Rundella Curtins -->
        <walk edges="1086005529 14014136#0 1086005528 -1086005527#0 -147218475#0 147218475#2 -116715858 -31061888#1 31061889#0 31061889#2 -31061889#3 -31061889#4 186141915#0 -186141915#1 1430507283 -645951511#0 1085798451 -1068941219#1 -1068941219#2 -1068941219#3 1068941219#4 1068941219#5 1068941219#6 -1068941219#7 -1068941219#8 -1068941219#9 1068941218 612250570#0 -612250570#1 -612250570#2 -612250570#3 612250570#4" arrivalPos="504.08"/>
    </person>
    <person id="394" depart="22217.73" departPos="random">
        <walk edges="-1428300394 1428300394 -196520689#2 -196520689#1 196520689#0 740109140 -188730894#0 -188730894#1 69347929 191253662#0 191253662#1 -191253662#2 191253662#3 -191253662#4 191253662#5 191253662#6 -191253662#7 -1068735332#3 30957906 -1493002173 -30952515#1 -30952515#0" busStop="2071.TA.92-1-N-j24-1.17.R.1"/> <!-- Champfèr, Schulhaus -->
        <ride busStop="1.TA.92-4-Q-j24-1.1.R.13" lines="2.TA.92-4-Q-j24-1.2.R" intended="2.TA.92-4-Q-j24-1.2.R.0" depart="24230.00"/> <!-- St. Moritz, Bahnhof -->
        <walk edges="519913257#1 519913257#0 -904728442 519913261#0 519913261#1" busStop="101.TA.92-1-N-j24-1.1.H.0"/> <!-- St. Moritz, Bahnhof -->
        <ride busStop="101.TA.92-1-N-j24-1.1.H.1" lines="528.TA.92-1-N-j24-1.5.H" intended="528.TA.92-1-N-j24-1.5.H.0" depart="24890.00"/> <!-- St. Moritz, Klinik Gut -->
        <walk edges="819942944#3 -819942944#4 819945211 -1467922383 819945210#0 819945210#1 1467922382 25303489#0 25303489#2" arrivalPos="21.14"/>
    </person>
    <person id="726" depart="22229.06" departPos="random">
        <walk edges="72562019#0 -72562019#1 72562019#2 72562019#3 72562019#4 1435131955#1 -1435131955#2 235361066 1219872251 30957907 1219872250 1219872249#0 -1219872249#1 -89727905#0 -89727905#1 -501346486 543256263#4 915198667 915198663 769993301#5 19724261 170952324#0 170952324#1 170952324#2 -170952324#3 -170952324#5 170952322#0 170952322#1" busStop="2.TA.92-4-Q-j24-1.2.R.13"/> <!-- St. Moritz Bad, Hallenbad -->
        <ride busStop="1.TA.92-4-Q-j24-1.1.R.13" lines="2.TA.92-4-Q-j24-1.2.R" intended="2.TA.92-4-Q-j24-1.2.R.0" depart="24470.00"/> <!-- St. Moritz, Bahnhof -->
        <walk edges="519913257#1 519913257#0 -904728442 519913261#0 519913261#1" arrivalPos="19.38"/>
    </person>
    <person id="855" depart="22284.37" departPos="random">
        <walk edges="519913257#1 519913257#0 916468197 916468198#1 916468198#2 89724876#5 1189801664 1189801665 916468195#0 916468196#0 631302139#4 -631302139#3 631302139#2 -631302139#1 -631302139#0 120840705#7 -120840705#6 120840705#5 -120840705#4 -120840705#3 120840705#2 120840705#1 -1113136564#1 -1113136564#0 89726026#3 89726026#2 -89726026#1 -89726026#0 51814854 30957915 -1132581922 1441721435 -382202904#4 382202904#3 -382202904#2 -382202904#1 382202904#0 -170952322#1 170952322#0 170952324#5 -170952324#3 170952324#2 -170952324#1" busStop="101.TA.92-1-N-j24-1.1.H.9"/> <!-- St. Moritz Bad, Via San Gian -->
        <ride busStop="1014.TA.92-1-N-j24-1.12.H.25" lines="1576.TA.92-6-I-j24-1.41.H" intended="1576.TA.92-6-I-j24-1.41.H.0" depart="24590.00"/> <!-- St. Moritz Bad, Campingplatz -->
        <walk edges="-30957907" arrivalPos="28.72"/>
    </person>
    <person id="692" depart="22314.00" departPos="random">
        <walk edges="268146971#3 -268146971#2 -268146971#1 268146971#0 769993301#2 769993301#1 769993301#0 19724261 170952324#0 170952324#1 170952324#2 -170952324#3 -170952324#5 170940321#1 -170940321#0" busStop="1599.TA.92-1-N-j24-1.13.R.1"/> <!-- St. Moritz Bad, Hallenbad -->
        <ride busStop="1014.TA.92-1-N-j24-1.12.H.14" lines="2034.TA.92-1-N-j24-1.15.R" intended="2034.TA.92-1-N-j24-1.15.R.0" depart="22790.00"/> <!-- St. Moritz, Bahnhof -->
        <walk edges="519913263#1 519913263#0 -120840710 519913265#0 519913265#1" arrivalPos="14.07"/>
    </person>
    <person id="172" depart="22341.96" departPos="random">
        <walk edges="209788024#1 -209788024#1 182095936#0 182095936#1 1136239035#0 1136239035#1 -209788015 1219863759 1219863760#1 664380228#1 185833040#2 -185833040#1 185833040#0 -18887954#2 -18887954#1 18887954#0 -31061888#1 -187198083#7 187198083#6 187198083#5 -187198083#3 -187198083#2 187198083#1 187198083#0 -117614806 1136237781 76091870#2 76091870#1 76091870#0 1136237774 76091869#0 -209788013" busStop="342.TA.92-10-J-j24-1.9.H.27"/> <!-- Silvaplana, Camping -->
        <ride busStop="342.TA.92-10-J-j24-1.9.H.28" lines="19.TA.96-290-0-j24-1.32.H" intended="19.TA.96-290-0-j24-1.32.H.0" depart="25070.00"/> <!-- Sils/Segl Maria, Seglias -->
        <walk edges="-96461182#0 1472605488#1 1472605488#0 1201541125 52959697#0 52959697#1 52959697#2 -52959697#3 56085325#0 -56085323#1" arrivalPos="6.60"/>
    </person>
    <person id="550" depart="22400.84" departPos="random">
        <walk edges="88723957#0 -96461180#4 96461180#3 -96461180#1 96461180#0 -819945220#2 819945220#1 819945220#0 120840708 -30957915" busStop="1599.TA.92-1-N-j24-1.13.R.3"/> <!-- St. Moritz Bad, Kath. Kirche -->
        <ride busStop="1014.TA.92-1-N-j24-1.12.H.14" lines="2034.TA.92-1-N-j24-1.15.R" intended="2034.TA.92-1-N-j24-1.15.R.0" depart="22970.00"/> <!-- St. Moritz, Bahnhof -->
        <walk edges="519913263#1 519913263#0 -120840710 -903531446 -120840712#0" arrivalPos="47.38"/>
    </person>
    <person id="169" depart="22473.90" departPos="random">
        <walk edges="-116507538#0 -31061888#1 -187198083#7 187198083#6 187198083#5 -187198083#3 -187198083#2 187198083#1 187198083#0 -117614806 1136237781 76091870#2 76091870#1 76091870#0 1136237774 76091869#0 -209788013" busStop="342.TA.92-10-J-j24-1.9.H.27"/> <!-- Silvaplana, Camping -->
        <ride busStop="342.TA.92-10-J-j24-1.9.H.29" lines="19.TA.96-290-0-j24-1.32.H" intended="19.TA.96-290-0-j24-1.32.H.0" depart="25070.00"/> <!-- Sils/Segl Maria, Posta -->
        <walk edges="-894905824 -256959704#0 -209755663#4 209755663#3 209755663#2 -209755663#0 1317098557 59637812#0 59637812#1 -59637812#2 -59637812#3 59637812#4 -59637812#5" arrivalPos="15.09"/>
    </person>
    <person id="134" depart="22523.23" departPos="random">
        <walk edges="-241932762#3 -241932762#4 175833041 175833044#0 -175833044#1 -1086010083 -1086010084 -59637812#10 59637812#9 -59637812#8 59637812#7 -59637812#5 59637812#4 -59637812#3 -59637812#2 59637812#1 59637812#0 -58413640#0 -209755663#0 209755663#2 209755663#3 -209755663#4 -96461185 1068735318#0 -1068735318#1 -1068735318#2 -256959702#0 -256959702#1 -256959702#2 -150277078#0 150277078#1 -150277078#2 -150277078#3 150277078#4 -150277078#5 -1472605488#0 1472605488#1 1472605488#2" busStop="919.TA.92-10-J-j24-1.22.R.6"/> <!-- Sils/Segl Maria, Seglias -->
        <ride busStop="742.TA.92-10-J-j24-1.17.R.3" lines="1084.TA.92-2-L-j24-1.24.R" intended="1084.TA.92-2-L-j24-1.24.R.0" depart="25490.00"/> <!-- Champfèr, Guardalej -->
        <walk edges="1068735330#1 -1068735330#2 1068735330#4 -1068735330#5 30952500#0 -30952535#0 -30952535#1 -30952512#0" arrivalPos="21.00"/>
    </person>
    <person id="187" depart="22546.82" departPos="random">
        <walk edges="612250570#1 612250570#0 1068941218 -1068941219#9 -1068941219#8 -1068941219#7 1068941219#6 1068941219#5 1068941219#4 -1068941219#3 -1068941219#2 -1068941219#1 1085798451 -645951511#0 1430507283 -186141915#1 186141915#0 -31061889#4 -31061889#3 31061889#2 31061889#0 31061888#1 116715858 147218475#2 -147218475#0 1086005527#0 1086005528 14014136#0 1136237770 1086005533" busStop="2340.TA.92-1-N-j24-1.24.R.2"/> <!-- Silvaplana, Rundella Curtins -->
        <ride busStop="742.TA.92-10-J-j24-1.17.R.3" lines="1084.TA.92-2-L-j24-1.24.R" intended="1084.TA.92-2-L-j24-1.24.R.0" depart="25790.00"/> <!-- Champfèr, Guardalej -->
        <walk edges="1068735330#1 -1068735330#2 1068735330#4 -1068735330#5 -209049905#0 30957906 -1493002173 -72562018 72562019#0 -72562019#1 72562019#2 72562019#3 72562019#4 1435131955#1 -1435131955#2 -894841757 -209049898 -209049897" arrivalPos="120.53"/>
    </person>
    <person id="243" depart="22608.03" departPos="random">
        <walk edges="30952483#6 -30952483#5 -30952483#4 30952483#3 30952483#2 -30952483#1 30952483#0 1068735330#1 -1068735330#2 1068735330#4 -1068735330#5 -209049905#0 30957906 -1493002173 -72562018 72562019#0 -72562019#1 72562019#2 72562019#3 72562019#4 1435131955#1 -1435131955#2 235361066 1219872251 -30957907" busStop="1014.TA.92-1-N-j24-1.12.H.25"/> <!-- St. Moritz Bad, Campingplatz -->
        <ride busStop="1.TA.92-4-Q-j24-1.1.R.13" lines="2.TA.92-4-Q-j24-1.2.R" intended="2.TA.92-4-Q-j24-1.2.R.0" depart="24290.00"/> <!-- St. Moritz, Bahnhof -->
        <walk edges="519913257#1 519913257#0 -904728442 -897592613 519913263#0 519913263#1" arrivalPos="11.24"/>
    </person>
    <person id="491" depart="22673.38" departPos="random">
        <walk edges="-189023060 189023059#0 232471144#1 -232471144#0 -1127470773 14014151 888359128#3 268776830#0 -268776830#1 1189801663 916015460#0 916015460#1 89724876#3 72562096#0 916468197 -904728442 -897592613 -120840710 -903531446 -120840712#0 -47578286 1068735342#0 1068735342#1 -819942945#0 819942945#2 1068735337 -152520535 819942944#2 819942944#3 -819942944#4 819945211 -1467922383 819945209 -152517443#2 -152517443#1" busStop="101.TA.92-1-N-j24-1.1.H.3"/> <!-- St. Moritz, Caspar Badrutt -->
        <ride busStop="101.TA.92-1-N-j24-1.1.H.7" lines="1576.TA.92-6-I-j24-1.41.H" intended="1576.TA.92-6-I-j24-1.41.H.0" depart="24170.00"/> <!-- St. Moritz Bad, Sonne -->
        <walk edges="-30050433#2 -30050433#3 96461180#0 -96461180#1 96461180#3 -96461180#4 -96461180#5 -1466236182#1" arrivalPos="2.61"/>
    </person>
    <person id="675" depart="22684.42" departPos="random">
        <walk edges="196751099#0 -196750043#3 -196750043#2 196750043#1 -196750043#0 -196749915#2 -196749915#1 196749915#0 188730896#2 188730896#1 188730896#0 69347933#1 69347933#0 1068735334 25303488#3 25303488#2 25303488#1 -25303488#0 1115020158 -1115020159 1068735336#3 -1068735336#2 -1068735336#1 1068735336#0 25303490 819945209 -1467922383 819945211 -819942944#4" busStop="1599.TA.92-1-N-j24-1.13.R.6"/> <!-- St. Moritz, Schulhausplatz -->
        <ride busStop="1014.TA.92-1-N-j24-1.12.H.14" lines="2340.TA.92-1-N-j24-1.24.R" intended="2340.TA.92-1-N-j24-1.24.R.0" depart="26330.00"/> <!-- St. Moritz, Bahnhof -->
        <walk edges="519913263#1" arrivalPos="6.71"/>
    </person>
    <person id="143" depart="22703.27" departPos="random">