<?xml version="1.0" encoding="UTF-8"?>

<!-- generated by Eclipse SUMO duarouter Version 1.12.0
<configuration xmlns:xsi="http://www.w3.org/2001/XMLSchema-instance" xsi:noNamespaceSchemaLocation="http://sumo.dlr.de/xsd/duarouterConfiguration.xsd">

    <input>
        <net-file value="D:\Dokumente\sumo\maloja\simple.net.xml"/>
        <additional-files value="D:\Dokumente\sumo\maloja\taz_maloja_simple.add.xml,D:\Dokumente\sumo\maloja\03_bus\virtualstop.add.xml,D:\Dokumente\sumo\maloja\03_bus\02_August\vtypes.xml,D:\Dokumente\sumo\maloja\03_bus\02_August\gtfs_pt_stops.add.xml"/>
        <route-files value="D:\Dokumente\sumo\maloja\02_work\persontrips_maloja_work_modded_public_bus_taxi.xml,D:\Dokumente\sumo\maloja\03_bus\02_August\gtfs_pt_vehicles.add.xml"/>
    </input>

    <output>
        <output-file value="D:\Dokumente\sumo\maloja\02_work\persontrips_maloja_work_resolved_summer_bus_taxi_w10.rou.xml"/>
        <alternatives-output value="D:\Dokumente\sumo\maloja\02_work\persontrips_maloja_work_resolved_summer_bus_taxi_w10.rou.alt.xml"/>
    </output>

    <processing>
        <persontrip.transfer.taxi-walk value="ptStops"/>
        <persontrip.transfer.walk-taxi value="ptStops"/>
        <persontrip.taxi.waiting-time value="600"/>
    </processing>

    <report>
        <verbose value="true"/>
    </report>

</configuration>
-->

<routes xmlns:xsi="http://www.w3.org/2001/XMLSchema-instance" xsi:noNamespaceSchemaLocation="http://sumo.dlr.de/xsd/routes_file.xsd">
    <person id="6" depart="21655.65" departPos="random">
        <ride from="-1083299691#0" to="62065386" arrivalPos="7.50" lines="taxi"/>
        <walk edges="62065386 120839520 -41157381 171771447#1 171771447#2 -171771447#3 890086160#0 890086160#1 -890086160#2 1083269027#1 1083269027#0" arrivalPos="7.84"/>
    </person>
    <person id="582" depart="21673.98" departPos="random">
        <ride from="-25366042#2" to="-30952515#0" arrivalPos="6.12" lines="taxi"/>
        <walk edges="-30952515#0 -30952515#1 1068735331 30984018#0 30984018#1" arrivalPos="16.78"/>
    </person>
    <person id="98" depart="21689.60" departPos="random">
        <ride from="890739709#1" to="519913257#1" arrivalPos="15.00" lines="taxi"/>
        <walk edges="519913257#1" arrivalPos="1.30"/>
    </person>
    <person id="300" depart="21749.63" departPos="random">
        <ride from="152336655#1" to="30957916#1" arrivalPos="29.75" lines="taxi"/>
        <walk edges="30957916#1 -96461188 30957932#0 -30957932#1 30957932#2 -30957932#3 30957932#4 -30957932#5" arrivalPos="31.47"/>
    </person>
    <person id="38" depart="21758.69" departPos="random">
        <ride from="171771428#3" to="890169725#1" arrivalPos="3.09" lines="taxi"/>
        <walk edges="890169725#1 -890169725#0 890169724#2" arrivalPos="16.52"/>
    </person>
    <person id="62" depart="21807.72" departPos="random">
        <ride from="1162538599#3" to="209755663#3" arrivalPos="2.55" lines="taxi"/>
        <walk edges="209755663#3 209755663#2 -209755663#0 1317098557 59637812#0 59637812#1 -59637812#2 -59637812#3 59637812#4 -59637812#5 59637812#7 -59637812#8 59637812#9 -59637812#10 -1086010084 -1086010083 -175833044#1 175833044#0 175833041 241932762#4 241932762#3 -241932762#2 241932762#1 241932762#0 -426408082#1 426408082#0" arrivalPos="0.59"/>
    </person>
    <person id="214" depart="21815.86" departPos="random">
        <ride from="-851855595#0" to="519913257#1" arrivalPos="15.00" lines="taxi"/>
        <walk edges="519913257#1 519913257#0 916468197 72562096#0 89724876#3 916015460#1 916015460#0 1189801663 -268776830#1 268776830#0 888359128#3 14014151 1127470775" arrivalPos="29.19"/>
    </person>
    <person id="592" depart="21912.99" departPos="random">
        <ride from="-239178470#3" to="740109140" arrivalPos="20.48" lines="taxi"/>
        <walk edges="740109140 -188730894#0 -188730894#1 -69347929" arrivalPos="12.26"/>
    </person>
    <person id="220" depart="21942.87" departPos="random">
        <ride from="-185833037" to="915198678#0" arrivalPos="23.94" lines="taxi"/>
        <walk edges="915198678#0 30957908#1 -977370315 30957910#0 -30957910#1 -30957910#2 -1116543561#0" arrivalPos="16.03"/>
    </person>
    <person id="477" depart="21955.36" departPos="random">
        <ride from="-189023055#0" to="30952515#0" arrivalPos="5.29" lines="taxi"/>
        <walk edges="30952515#0 -72562019#0" arrivalPos="2.51"/>
    </person>
    <person id="8" depart="21981.92" departPos="random">
        <ride from="502426860#1" to="1426892794#3" arrivalPos="11.14" lines="taxi"/>
        <walk edges="1426892794#3 71759543#0 -71759543#1 71759543#2 -71759543#3 522706570#0 -522706566#1 522706566#0 -522706560#0" arrivalPos="0.16"/>
    </person>
    <person id="517" depart="22041.84" departPos="random">
        <ride from="60103241" to="1068735330#7" arrivalPos="7.50" lines="taxi"/>
        <walk edges="1068735330#7 -30984005" arrivalPos="11.81"/>
    </person>
    <person id="1" depart="22076.94" departPos="random">
        <ride from="-1083277950" to="175833048" arrivalPos="84.81" lines="taxi"/>
        <walk edges="175833048 -307930214 1068735315#1 -1068735315#0 -1085975993 349887484 507648839 -175833050 -349888201#1 349888201#0 18883232#3 18883232#1 256980712" arrivalPos="78.55"/>
    </person>
    <person id="650" depart="22089.60" departPos="random">
        <ride from="-1115015078#1" to="519913261#1" arrivalPos="15.00" lines="taxi"/>
        <walk edges="519913261#1" arrivalPos="12.82"/>
    </person>
    <person id="89" depart="22091.59" departPos="random">
        <ride from="1083276371#2" to="519913257#1" arrivalPos="15.00" lines="taxi"/>
        <walk edges="519913257#1" arrivalPos="16.21"/>
    </person>
    <person id="250" depart="22161.95" departPos="random">
        <ride from="-1005048061#1" to="-186140135#2" arrivalPos="51.61" lines="taxi"/>
        <walk edges="-186140135#2" arrivalPos="107.14"/>
    </person>
    <person id="61" depart="22187.91" departPos="random">
        <ride from="70702070#0" to="-96461182#0" arrivalPos="7.50" lines="taxi"/>
        <walk edges="-96461182#0 1472605488#1 1472605488#0 1201541125 52959697#0 52959697#1 52959697#2 -52959697#3 -56085325#0 -56085325#1 56085325#2 56085325#3 -56085325#4 -256959701#0" arrivalPos="7.84"/>
    </person>
    <person id="271" depart="22209.79" departPos="random">
        <ride from="235361058#0" to="612250570#5" arrivalPos="377.22" lines="taxi"/>
        <walk edges="612250570#5 612250570#4" arrivalPos="504.08"/>
    </person>
    <person id="394" depart="22217.73" departPos="random">
        <ride from="-1428300394" to="25412019" arrivalPos="14.90" lines="taxi"/>
        <walk edges="25412019 25303489#2" arrivalPos="21.14"/>
    </person>
    <person id="726" depart="22229.06" departPos="random">
        <ride from="72562019#0" to="519913261#1" arrivalPos="15.00" lines="taxi"/>
        <walk edges="519913261#1" arrivalPos="19.38"/>
    </person>
    <person id="855" depart="22284.37" departPos="random">
        <ride from="519913257#1" to="-30957907" arrivalPos="66.03" lines="taxi"/>
        <walk edges="-30957907" arrivalPos="28.72"/>
    </person>
    <person id="692" depart="22314.00" departPos="random">
        <ride from="268146971#3" to="519913265#1" arrivalPos="10.00" lines="taxi"/>
        <walk edges="519913265#1" arrivalPos="14.07"/>
    </person>
    <person id="172" depart="22341.96" departPos="random">
        <ride from="209788024#1" to="-96461182#0" arrivalPos="7.50" lines="taxi"/>
        <walk edges="-96461182#0 1472605488#1 1472605488#0 1201541125 52959697#0 52959697#1 52959697#2 -52959697#3 56085325#0 -56085323#1" arrivalPos="6.60"/>
    </person>
    <person id="550" depart="22400.84" departPos="random">
        <ride from="88723957#0" to="519913265#1" arrivalPos="10.00" lines="taxi"/>
        <walk edges="519913265#1 519913265#0 -903531446 -120840712#0" arrivalPos="47.38"/>
    </person>
    <person id="169" depart="22473.90" departPos="random">
        <ride from="-116507538#0" to="209755663#3" arrivalPos="2.55" lines="taxi"/>
        <walk edges="209755663#3 209755663#2 -209755663#0 1317098557 59637812#0 59637812#1 -59637812#2 -59637812#3 59637812#4 -59637812#5" arrivalPos="15.09"/>
    </person>
    <person id="134" depart="22523.23" departPos="random">
        <ride from="-241932762#3" to="30952515#0" arrivalPos="5.29" lines="taxi"/>
        <walk edges="30952515#0 72562019#0 -72562019#1 -30952527#1 -30952527#0 30952535#2 -30952512#0" arrivalPos="21.00"/>
    </person>
    <person id="187" depart="22546.82" departPos="random">
        <ride from="612250570#1" to="30952515#0" arrivalPos="5.29" lines="taxi"/>
        <walk edges="30952515#0 72562019#0 -72562019#1 72562019#2 72562019#3 72562019#4 1435131955#1 -1435131955#2 -894841757 -209049898 -209049897" arrivalPos="120.53"/>
    </person>
    <person id="243" depart="22608.03" departPos="random">
        <ride from="30952483#6" to="519913263#1" arrivalPos="15.00" lines="taxi"/>
        <walk edges="519913263#1" arrivalPos="11.24"/>
    </person>
    <person id="491" depart="22673.38" departPos="random">
        <ride from="-189023060" to="96461180#5" arrivalPos="16.58" lines="taxi"/>
        <walk edges="96461180#5 -1466236182#1" arrivalPos="2.61"/>
    </person>
    <person id="675" depart="22684.42" departPos="random">
        <ride from="196751099#0" to="519913263#1" arrivalPos="15.00" lines="taxi"/>
        <walk edges="519913263#1" arrivalPos="6.71"/>
    </person>
    <person id="143" depart="22703.27" departPos="random">
        <ride from="150277078#4" to="740109140" arrivalPos="20.48" lines="taxi"/>
        <walk edges="740109140 -188730896#6 188730896#5 188730896#4" arrivalPos="1.16"/>
    </person>
    <person id="296" depart="22744.44" departPos="random">
        <ride from="-819942945#2" to="1068735330#7" arrivalPos="7.50" lines="taxi"/>
        <walk edges="1068735330#7 30952500#0" arrivalPos="13.37"/>
    </person>
    <person id="772" depart="22753.78" departPos="random">
        <ride from="519913257#1" to="25418588#1" arrivalPos="7.50" lines="taxi"/>
        <walk edges="25418588#1" arrivalPos="94.97"/>
    </person>
    <person id="325" depart="22779.20" departPos="random">
        <ride from="188730896#2" to="170940321#0" arrivalPos="43.86" lines="taxi"/>
        <walk edges="170940321#0 -170940321#1 170952324#5 219034871#0 219034871#1 -219034871#2 219034871#3" arrivalPos="1.48"/>
    </person>
    <person id="659" depart="22806.22" departPos="random">
        <ride from="-188727260#1" to="519913257#1" arrivalPos="15.00" lines="taxi"/>
        <walk edges="519913257#1" arrivalPos="27.38"/>
    </person>
    <person id="97" depart="22823.00" departPos="random">
        <ride from="430248865#14" to="519913263#1" arrivalPos="15.00" lines="taxi"/>
        <walk edges="519913263#1" arrivalPos="0.85"/>
    </person>
    <person id="68" depart="22856.12" departPos="random">
        <ride from="1083276371#0" to="-25303488#4" arrivalPos="184.55" lines="taxi"/>
        <walk edges="-25303488#4 -1068735333 -1068735332#0 -1068735332#1" arrivalPos="164.24"/>
    </person>
    <person id="591" depart="22867.39" departPos="random">
        <ride from="-30952526" to="519913257#1" arrivalPos="15.00" lines="taxi"/>
        <walk edges="519913257#1 519913257#0 916468197 72562096#0 89724876#3 916015460#1 916015460#0 1189801663 -268776830#1 268776830#0 888359128#3 14014151 -1127470773 -232471144#0 -232471144#1 232471144#2" arrivalPos="1.37"/>
    </person>
    <person id="241" depart="22898.74" departPos="random">
        <ride from="187198083#3" to="519913261#1" arrivalPos="15.00" lines="taxi"/>
        <walk edges="519913261#1" arrivalPos="3.67"/>
    </person>
    <person id="77" depart="22936.43" departPos="random">
        <ride from="-208216583#1" to="-30952515#0" arrivalPos="6.12" lines="taxi"/>
        <walk edges="-30952515#0 -30952515#1 1068735331 30984018#0 -30984018#1 30984018#2 -30984018#3 -30984020" arrivalPos="6.65"/>
    </person>
    <person id="553" depart="22938.16" departPos="random">
        <ride from="1188934794" to="30050433#2" arrivalPos="25.09" lines="taxi"/>
        <walk edges="30050433#2 -30050433#1 -30050433#0" arrivalPos="5.56"/>
    </person>
    <person id="486" depart="22949.58" departPos="random">
        <ride from="1115015078#2" to="740109140" arrivalPos="20.48" lines="taxi"/>
        <walk edges="740109140 -188730894#0 -188730894#1 69347929 268154513#1 -268154513#0" arrivalPos="374.99"/>
    </person>
    <person id="1018" depart="23006.58" departPos="random">
        <ride from="519913265#1" to="25303488#4" arrivalPos="38.05" lines="taxi"/>
        <walk edges="25303488#4 -1068735333 -1068735332#0 -188731354#0" arrivalPos="59.86"/>
    </person>
    <person id="895" depart="23007.38" departPos="random">
        <ride from="519913263#1" to="30952515#0" arrivalPos="5.29" lines="taxi"/>
        <walk edges="30952515#0 72562019#0 -72562019#1 72562019#2 72562019#3 72562019#4 1435131955#1 -1435131955#2 -894841757 -209049898 1219872252" arrivalPos="30.18"/>
    </person>
    <person id="253" depart="23099.10" departPos="random">
        <ride from="1068735342#1" to="256959704#2" arrivalPos="7.50" lines="taxi"/>
        <walk edges="256959704#2 -256959704#0 56257117#0 -56257117#1 -56257117#2 -56257135#1 -56257135#0" arrivalPos="3.31"/>
    </person>
    <person id="349" depart="23123.81" departPos="random">
        <ride from="152516783#0" to="-30957907" arrivalPos="66.03" lines="taxi"/>
        <walk edges="-30957907 26167898#0 26167898#1 26167908#1" arrivalPos="5.04"/>
    </person>
    <person id="971" depart="23131.64" departPos="random">
        <ride from="519913257#1" to="30952515#0" arrivalPos="5.29" lines="taxi"/>
        <walk edges="30952515#0 -72562018" arrivalPos="2.11"/>
    </person>
    <person id="369" depart="23163.96" departPos="random">
        <ride from="543256263#1" to="519913257#1" arrivalPos="15.00" lines="taxi"/>
        <walk edges="519913257#1 519913257#0 916468197 72562096#0 89724876#3 916015460#1 916015460#0 1189801663 -268776830#1 268776830#0 888359128#3 14014151 -1127470773 -232471144#0 -232471144#1 232471144#2 -1318101191#1 -1318101192 189023055#0 -189023055#1 -189023056#0 189023056#1 -189023056#2" arrivalPos="9.53"/>
    </person>
    <person id="414" depart="23214.82" departPos="random">
        <ride from="26167684#1" to="-819942944#4" arrivalPos="39.13" lines="taxi"/>
        <walk edges="-819942944#4 819945211 -1467922383 819945209 25303490 1068735336#0 -1068735336#1 -1068735336#2 1068735336#3" arrivalPos="10.88"/>
    </person>
    <person id="756" depart="23291.44" departPos="random">
        <ride from="519913265#1" to="56240189#7" arrivalPos="7.50" lines="taxi"/>
        <walk edges="56240189#7 -56240189#8 56240189#9 -973459742#0 -973459742#1" arrivalPos="47.86"/>
    </person>
    <person id="755" depart="23295.71" departPos="random">
        <ride from="519913263#1" to="-96461182#0" arrivalPos="7.50" lines="taxi"/>
        <walk edges="-96461182#0 96461182#1 -96461182#2 -66846274 14014133#2 14014133#3 -56240279#4 56240279#2 -56240279#1 -56240279#0" arrivalPos="38.48"/>
    </person>
    <person id="611" depart="23307.55" departPos="random">
        <ride from="-25303412" to="152517715#3" arrivalPos="7.50" lines="taxi"/>
        <walk edges="152517715#3 1005170350 -152517446" arrivalPos="125.45"/>
    </person>
    <person id="295" depart="23334.61" departPos="random">
        <ride from="819942944#2" to="1068735330#1" arrivalPos="7.04" lines="taxi"/>
        <walk edges="1068735330#1 30952483#0 -30952483#1 30952490#0 -30952523#0 -30952523#1 30952496#0" arrivalPos="12.62"/>
    </person>
    <person id="437" depart="23335.93" departPos="random">
        <ride from="188730896#6" to="30050433#2" arrivalPos="25.09" lines="taxi"/>
        <walk edges="30050433#2 -30050433#1 30050433#0 -96461184#1" arrivalPos="102.00"/>
    </person>
    <person id="745" depart="23338.48" departPos="random">
        <ride from="519913257#1" to="209755663#3" arrivalPos="2.55" lines="taxi"/>
        <walk edges="209755663#3 209755663#2 -209755663#0 1317098557 59637812#0 59637812#1 -59637812#2 -59637812#3 59637812#4 -59637812#5 59637812#7 -59637812#8 59637812#9 -59637812#10" arrivalPos="128.29"/>
    </person>
    <person id="29" depart="23352.65" departPos="random">
        <ride from="-391653980#2" to="-1083351550#0" arrivalPos="16.69" lines="taxi"/>
        <walk edges="-1083351550#0 -1083351550#1 1083276371#0 -1083276371#1 -1083276371#2 120840219#0 -120840219#1" arrivalPos="25.50"/>
    </person>
    <person id="334" depart="23382.15" departPos="random">
        <ride from="72562019#2" to="170952322#1" arrivalPos="51.49" lines="taxi"/>
        <walk edges="170952322#1 382202904#0 -382202904#1 -382202904#2 382202904#3 -382202904#4 1441721435" arrivalPos="34.54"/>
    </person>
    <person id="426" depart="23385.32" departPos="random">
        <ride from="-41595601#2" to="170940321#0" arrivalPos="43.86" lines="taxi"/>
        <walk edges="170940321#0 -170940321#1 170952324#5 239178470#0 239178470#1" arrivalPos="19.66"/>
    </person>
    <person id="319" depart="23441.56" departPos="random">
        <ride from="-239178470#2" to="-819942944#4" arrivalPos="39.13" lines="taxi"/>
        <walk edges="-819942944#4 819945211 -1467922383 819945209 25303490 1068735336#0 -1068735336#1 -1068735336#2 1068735336#3" arrivalPos="20.58"/>
    </person>
    <person id="983" depart="23445.98" departPos="random">
        <ride from="519913257#1" to="740109140" arrivalPos="20.48" lines="taxi"/>
        <walk edges="740109140 -188730894#0 -188730894#1 69347929 268154513#1" arrivalPos="115.14"/>
    </person>
    <person id="549" depart="23492.12" departPos="random">
        <ride from="26167908#3" to="1113136564#0" arrivalPos="4.93" lines="taxi"/>
        <walk edges="1113136564#0 -1113136564#1 -120840705#1 120840705#2 -120840705#3" arrivalPos="5.83"/>
    </person>
    <person id="994" depart="23500.81" departPos="random">
        <ride from="519913265#1" to="740109140" arrivalPos="20.48" lines="taxi"/>
        <walk edges="740109140 -188730896#6 188730896#5 -188730896#4 188730896#3 196749915#0 -196749915#1 -196749915#2 -196750043#0 -196750043#1" arrivalPos="165.61"/>
    </person>
    <person id="249" depart="23518.15" departPos="random">
        <ride from="268152262#5" to="-890169725#1" arrivalPos="3.04" lines="taxi"/>
        <walk edges="-890169725#1 -890169725#2 -890169725#3 890169725#5 776871491#0 776871491#1 776871491#2" arrivalPos="8.09"/>
    </person>
    <person id="57" depart="23572.95" departPos="random">
        <ride from="-128157724#0" to="209755663#3" arrivalPos="2.55" lines="taxi"/>
        <walk edges="209755663#3 209755663#2 -209755663#0 1317098557 59637812#0 59637812#1 -59637812#2 -59637812#3 59637812#4 -59637812#5 59637812#7 -59637812#8 59637812#9 -59637812#10 -1086010084 -1086010083 -175833044#1 175833044#0 175833041 175833047#0 -175833047#1" arrivalPos="2.22"/>
    </person>
    <person id="977" depart="23602.43" departPos="random">
        <ride from="519913265#1" to="1161282679#6" arrivalPos="13.55" lines="taxi"/>
        <walk edges="1161282679#6 -916559232#0 -916559232#1 -267559167#0" arrivalPos="21.61"/>
    </person>
    <person id="689" depart="23604.99" departPos="random">
        <ride from="-170952322#0" to="519913265#1" arrivalPos="10.00" lines="taxi"/>
        <walk edges="519913265#1" arrivalPos="14.99"/>
    </person>
    <person id="890" depart="23605.96" departPos="random">
        <ride from="519913257#1" to="-30957915" arrivalPos="9.76" lines="taxi"/>
        <walk edges="-30957915 120840708 819945220#0 819945220#1" arrivalPos="108.76"/>
    </person>
    <person id="12" depart="23615.92" departPos="random">
        <ride from="-1426892793#1" to="120829159" arrivalPos="10.00" lines="taxi"/>
        <walk edges="120829159 1083356001 -614559903" arrivalPos="1.93"/>
    </person>
    <person id="914" depart="23624.21" departPos="random">
        <ride from="519913263#1" to="170940321#0" arrivalPos="43.86" lines="taxi"/>
        <walk edges="170940321#0 -170940321#1 170952324#5 239178470#0" arrivalPos="1.63"/>
    </person>
    <person id="915" depart="23636.60" departPos="random">
        <ride from="519913263#1" to="25303487#3" arrivalPos="46.08" lines="taxi"/>
        <walk edges="25303487#3 -25303487#3" arrivalPos="74.73"/>
    </person>
    <person id="568" depart="23648.98" departPos="random">
        <ride from="-47578286" to="-170940321#0" arrivalPos="37.32" lines="taxi"/>
        <walk edges="-170940321#0 -175791806#1 175791806#0 1158102646 -175791807#1" arrivalPos="32.72"/>
    </person>
    <person id="898" depart="23680.92" departPos="random">
        <ride from="519913261#1" to="25303487#3" arrivalPos="46.08" lines="taxi"/>
        <walk edges="25303487#3 -25303487#3" arrivalPos="25.53"/>
    </person>
    <person id="78" depart="23691.43" departPos="random">
        <ride from="365973802" to="30957907" arrivalPos="553.86" lines="taxi"/>
        <walk edges="30957907 1219872250 1219872249#0" arrivalPos="7.84"/>
    </person>
    <person id="82" depart="23701.00" departPos="random">
        <ride from="-171771384#1" to="740109140" arrivalPos="20.48" lines="taxi"/>
        <walk edges="740109140 -188730896#6 188730896#5 -188730896#4 188730896#3 196749915#0 -196749915#1 -196749915#2 -196750043#0 -196750043#1" arrivalPos="146.39"/>
    </person>
    <person id="843" depart="23713.21" departPos="random">
        <ride from="519913263#1" to="-30957907" arrivalPos="66.03" lines="taxi"/>
        <walk edges="-30957907 26167898#0 -26167908#0" arrivalPos="18.50"/>
    </person>
    <person id="31" depart="23716.75" departPos="random">
        <ride from="-70702075#1" to="-502426852#0" arrivalPos="73.49" lines="taxi"/>
        <walk edges="-502426852#0 -502426852#1 502426852#2 -502426852#3 -518702669 208216585#0" arrivalPos="40.73"/>
    </person>
    <person id="599" depart="23717.35" departPos="random">
        <ride from="-189023055#4" to="170952324#1" arrivalPos="7.50" lines="taxi"/>
        <walk edges="170952324#1 170952324#0 19724261 769993301#0 915198669 915198670" arrivalPos="1.34"/>
    </person>
    <person id="203" depart="23734.27" departPos="random">
        <ride from="30952523#2" to="1113136564#0" arrivalPos="4.93" lines="taxi"/>
        <walk edges="1113136564#0 -1113136564#1 -120840705#1 120840705#2 -120840705#3 -120840705#4 120840705#5" arrivalPos="8.87"/>
    </person>
    <person id="453" depart="23773.84" departPos="random">
        <ride from="1005052428#1" to="740109140" arrivalPos="20.48" lines="taxi"/>
        <walk edges="740109140 -188730896#6 188730896#5 -188730896#4 188730896#3 196749915#0 -196749915#1 -196749915#2 -196750043#0 196750043#1 -196750043#2 -196750043#3 -196751099#0" arrivalPos="30.57"/>
    </person>
    <person id="196" depart="23813.72" departPos="random">
        <ride from="-1430507283" to="-30952515#0" arrivalPos="6.12" lines="taxi"/>
        <walk edges="-30952515#0 -30952515#1 1068735331 30984018#0 -30984018#1 30984018#2 -30984018#3 30984018#4 30984018#5" arrivalPos="4.90"/>
    </person>
    <person id="367" depart="23821.78" departPos="random">
        <ride from="26167684#4" to="894576901#0" arrivalPos="26.60" lines="taxi"/>
        <walk edges="894576901#0 -41595603#2 -819942940#1 -152522410#1 -1005048061#2 1005048061#1 -1005048061#0 1005048062#1 578147406" arrivalPos="9.76"/>
    </person>
    <person id="293" depart="23903.82" departPos="random">
        <ride from="41595601#3" to="1086005529" arrivalPos="102.22" lines="taxi"/>
        <walk edges="1086005529 14014136#0 1086005528 -1086005527#0 31061886#0 -31061886#1 31061886#2 -31061886#3 31061886#4" arrivalPos="10.48"/>
    </person>
    <person id="740" depart="23932.26" departPos="random">
        <ride from="519913265#1" to="391661586" arrivalPos="62.32" lines="taxi"/>
        <walk edges="391661586 1083277951#1 1083277951#0 -349618630#1 349618630#0 741319024#2" arrivalPos="44.18"/>
    </person>
    <person id="204" depart="23951.80" departPos="random">
        <ride from="-116507538#3" to="25303487#3" arrivalPos="46.08" lines="taxi"/>
        <walk edges="25303487#3 -25303487#2" arrivalPos="5.06"/>
    </person>
    <person id="956" depart="23962.49" departPos="random">
        <ride from="519913265#1" to="-30957915" arrivalPos="9.76" lines="taxi"/>
        <walk edges="-30957915 -914487470" arrivalPos="10.61"/>
    </person>
    <person id="215" depart="23981.01" departPos="random">
        <ride from="30952483#4" to="1113136564#0" arrivalPos="4.93" lines="taxi"/>
        <walk edges="1113136564#0 -1113136564#1 14014143#0 -14014143#1 915198687#0 915198687#1" arrivalPos="16.82"/>
    </person>
    <person id="731" depart="23986.58" departPos="random">
        <ride from="-120840708" to="519913261#1" arrivalPos="15.00" lines="taxi"/>
        <walk edges="519913261#1" arrivalPos="14.54"/>
    </person>
    <person id="370" depart="23991.46" departPos="random">
        <ride from="267559167#2" to="-30050433#2" arrivalPos="38.69" lines="taxi"/>
        <walk edges="-30050433#2 -30050433#3 819945220#2" arrivalPos="99.11"/>
    </person>
    <person id="272" depart="24018.54" departPos="random">
        <ride from="-916559232#1" to="25418588#1" arrivalPos="7.50" lines="taxi"/>
        <walk edges="25418588#1 19738790#1" arrivalPos="66.15"/>
    </person>
    <person id="21" depart="24036.32" departPos="random">
        <ride from="-171771450#2" to="890169725#1" arrivalPos="3.09" lines="taxi"/>
        <walk edges="890169725#1 -890169723#0 -890169723#1 890169723#2 -1036672006#0 -1036672006#1 391653985#1 890947148" arrivalPos="24.40"/>
    </person>
    <person id="849" depart="24088.30" departPos="random">
        <ride from="519913265#1" to="1113136564#0" arrivalPos="4.93" lines="taxi"/>
        <walk edges="1113136564#0 -1113136564#1 -120840705#1 120840705#2 -120840705#3 -120840705#4 -1113054108#1 1113054108#0" arrivalPos="69.89"/>
    </person>
    <person id="238" depart="24127.56" departPos="random">
        <ride from="-30952523#3" to="519913257#1" arrivalPos="15.00" lines="taxi"/>
        <walk edges="519913257#1" arrivalPos="27.96"/>
    </person>
    <person id="559" depart="24171.31" departPos="random">
        <ride from="-1127470773" to="25303487#3" arrivalPos="46.08" lines="taxi"/>
        <walk edges="25303487#3 25303487#2 25303487#1 -25303487#0" arrivalPos="0.32"/>
    </person>
    <person id="141" depart="24184.32" departPos="random">
        <ride from="1317098557" to="25412019" arrivalPos="14.90" lines="taxi"/>
        <walk edges="25412019 25412020#0 152516783#4 152516783#3 152516783#2 152516783#1 152516783#0" arrivalPos="2.13"/>
    </person>
    <person id="162" depart="24193.71" departPos="random">
        <ride from="-208882165#0" to="519913263#1" arrivalPos="15.00" lines="taxi"/>
        <walk edges="519913263#1" arrivalPos="2.97"/>
    </person>
    <person id="948" depart="24212.63" departPos="random">
        <ride from="519913261#1" to="96461180#5" arrivalPos="16.58" lines="taxi"/>
        <walk edges="96461180#5 88717666#1 88717666#2 -88717666#3" arrivalPos="21.91"/>
    </person>
    <person id="940" depart="24223.38" departPos="random">
        <ride from="519913265#1" to="-30957915" arrivalPos="9.76" lines="taxi"/>
        <walk edges="-30957915 51814854 -89726026#0 -89726026#1 -89726026#2" arrivalPos="18.11"/>
    </person>
    <person id="593" depart="24223.40" departPos="random">
        <ride from="-30957911" to="268146940#6" arrivalPos="7.77" lines="taxi"/>
        <walk edges="268146940#6 268146940#5 -268146940#4 268146940#3 39830434#0 39830434#1 -39830434#2 -391952926#3 391952926#2 391952926#1 152336656#0 152336656#2 152336655#0" arrivalPos="126.46"/>
    </person>
    <person id="341" depart="24243.76" departPos="random">
        <ride from="1115020156" to="268146940#6" arrivalPos="7.77" lines="taxi"/>
        <walk edges="268146940#6 268146940#5 -268146940#4 268146940#3 268146940#2" arrivalPos="10.92"/>
    </person>
    <person id="155" depart="24246.68" departPos="random">
        <ride from="56257117#0" to="519913265#1" arrivalPos="10.00" lines="taxi"/>
        <walk edges="519913265#1" arrivalPos="11.66"/>
    </person>
    <person id="609" depart="24255.10" departPos="random">
        <ride from="-96461184#0" to="519913265#1" arrivalPos="10.00" lines="taxi"/>
        <walk edges="519913265#1 519913265#0 -903531446 -120840712#0 -47578286 120840712#3 37804543#0 -37804543#1" arrivalPos="220.52"/>
    </person>
    <person id="773" depart="24263.30" departPos="random">
        <ride from="519913261#1" to="30957916#1" arrivalPos="29.75" lines="taxi"/>
        <walk edges="30957916#1 -96461188 30957932#0 -30957932#1 30957932#2 -30957932#3 30957932#4 30957932#5 -30957932#6 30957932#7" arrivalPos="22.30"/>
    </person>
    <person id="763" depart="24272.49" departPos="random">
        <ride from="519913261#1" to="30952515#0" arrivalPos="5.29" lines="taxi"/>
        <walk edges="30952515#0 72562019#0 -72562019#1 -30952527#1 30952527#0" arrivalPos="3.87"/>
    </person>
    <person id="96" depart="24275.78" departPos="random">
        <ride from="518701614#1" to="519913263#1" arrivalPos="15.00" lines="taxi"/>
        <walk edges="519913263#1" arrivalPos="16.26"/>
    </person>
    <person id="647" depart="24277.91" departPos="random">
        <ride from="239178470#1" to="519913257#1" arrivalPos="15.00" lines="taxi"/>
        <walk edges="519913257#1" arrivalPos="27.80"/>
    </person>
    <person id="468" depart="24284.71" departPos="random">
        <ride from="-1428300393#2" to="519913257#1" arrivalPos="15.00" lines="taxi"/>
        <walk edges="519913257#1 519913257#0 916468197 72562096#0" arrivalPos="10.99"/>
    </person>
    <person id="560" depart="24316.97" departPos="random">
        <ride from="-170952324#2" to="894576901#0" arrivalPos="26.60" lines="taxi"/>