<routes>
    <vehicle id="1008.TA.92-1-N-j24-1.88.H" route="1008.TA.92-1-N-j24-1.88.H" type="bus" depart="64800" line="1008.TA.92-1-N-j24-1.88.H">
        <param key="gtfs.route_name" value="1"/>
        <param key="gtfs.trip_headsign" value="Surlej, Foppas"/>
    </vehicle>
    <vehicle id="1063.TA.92-1-N-j24-1.89.H" route="1063.TA.92-1-N-j24-1.89.H" type="bus" depart="59400" line="1063.TA.92-1-N-j24-1.89.H">
        <param key="gtfs.route_name" value="1"/>
        <param key="gtfs.trip_headsign" value="Surlej, Corvatschbahn"/>
    </vehicle>
    <vehicle id="1093.TA.92-1-N-j24-1.89.H" route="1063.TA.92-1-N-j24-1.89.H" type="bus" depart="61200" line="1063.TA.92-1-N-j24-1.89.H">
        <param key="gtfs.route_name" value="1"/>
        <param key="gtfs.trip_headsign" value="Surlej, Corvatschbahn"/>
    </vehicle>
    <vehicle id="1095.TA.92-1-N-j24-1.89.H" route="1063.TA.92-1-N-j24-1.89.H" type="bus" depart="45000" line="1063.TA.92-1-N-j24-1.89.H">
        <param key="gtfs.route_name" value="1"/>
        <param key="gtfs.trip_headsign" value="Surlej, Corvatschbahn"/>
    </vehicle>
    <vehicle id="1144.TA.92-1-N-j24-1.89.H" route="1063.TA.92-1-N-j24-1.89.H" type="bus" depart="50400" line="1063.TA.92-1-N-j24-1.89.H">
        <param key="gtfs.route_name" value="1"/>
        <param key="gtfs.trip_headsign" value="Surlej, Corvatschbahn"/>
    </vehicle>
    <vehicle id="1153.TA.92-1-N-j24-1.89.H" route="1063.TA.92-1-N-j24-1.89.H" type="bus" depart="28800" line="1063.TA.92-1-N-j24-1.89.H">
        <param key="gtfs.route_name" value="1"/>
        <param key="gtfs.trip_headsign" value="Surlej, Corvatschbahn"/>
    </vehicle>
    <vehicle id="1185.TA.92-1-N-j24-1.89.H" route="1063.TA.92-1-N-j24-1.89.H" type="bus" depart="36000" line="1063.TA.92-1-N-j24-1.89.H">
        <param key="gtfs.route_name" value="1"/>
        <param key="gtfs.trip_headsign" value="Surlej, Corvatschbahn"/>
    </vehicle>
    <vehicle id="1226.TA.92-1-N-j24-1.89.H" route="1063.TA.92-1-N-j24-1.89.H" type="bus" depart="30600" line="1063.TA.92-1-N-j24-1.89.H">
        <param key="gtfs.route_name" value="1"/>
        <param key="gtfs.trip_headsign" value="Surlej, Corvatschbahn"/>
    </vehicle>
    <vehicle id="1296.TA.92-1-N-j24-1.89.H" route="1063.TA.92-1-N-j24-1.89.H" type="bus" depart="43200" line="1063.TA.92-1-N-j24-1.89.H">
        <param key="gtfs.route_name" value="1"/>
        <param key="gtfs.trip_headsign" value="Surlej, Corvatschbahn"/>
    </vehicle>
    <vehicle id="1313.TA.92-1-N-j24-1.89.H" route="1063.TA.92-1-N-j24-1.89.H" type="bus" depart="39600" line="1063.TA.92-1-N-j24-1.89.H">
        <param key="gtfs.route_name" value="1"/>
        <param key="gtfs.trip_headsign" value="Surlej, Corvatschbahn"/>
    </vehicle>
    <vehicle id="1411.TA.92-1-N-j24-1.89.H" route="1063.TA.92-1-N-j24-1.89.H" type="bus" depart="54000" line="1063.TA.92-1-N-j24-1.89.H">
        <param key="gtfs.route_name" value="1"/>
        <param key="gtfs.trip_headsign" value="Surlej, Corvatschbahn"/>
    </vehicle>
    <vehicle id="1473.TA.92-1-N-j24-1.89.H" route="1063.TA.92-1-N-j24-1.89.H" type="bus" depart="48600" line="1063.TA.92-1-N-j24-1.89.H">
        <param key="gtfs.route_name" value="1"/>
        <param key="gtfs.trip_headsign" value="Surlej, Corvatschbahn"/>
    </vehicle>
    <vehicle id="1478.TA.92-1-N-j24-1.89.H" route="1063.TA.92-1-N-j24-1.89.H" type="bus" depart="57600" line="1063.TA.92-1-N-j24-1.89.H">
        <param key="gtfs.route_name" value="1"/>
        <param key="gtfs.trip_headsign" value="Surlej, Corvatschbahn"/>
    </vehicle>
    <vehicle id="1506.TA.92-1-N-j24-1.89.H" route="1063.TA.92-1-N-j24-1.89.H" type="bus" depart="46800" line="1063.TA.92-1-N-j24-1.89.H">
        <param key="gtfs.route_name" value="1"/>
        <param key="gtfs.trip_headsign" value="Surlej, Corvatschbahn"/>
    </vehicle>
    <vehicle id="154.TA.92-1-N-j24-1.77.H" route="154.TA.92-1-N-j24-1.77.H" type="bus" depart="70500" line="154.TA.92-1-N-j24-1.77.H">
        <param key="gtfs.route_name" value="1"/>
        <param key="gtfs.trip_headsign" value="St. Moritz Bad, Via San Gian"/>
    </vehicle>
    <vehicle id="1564.TA.92-1-N-j24-1.89.H" route="1063.TA.92-1-N-j24-1.89.H" type="bus" depart="32400" line="1063.TA.92-1-N-j24-1.89.H">
        <param key="gtfs.route_name" value="1"/>
        <param key="gtfs.trip_headsign" value="Surlej, Corvatschbahn"/>
    </vehicle>
    <vehicle id="1679.TA.92-1-N-j24-1.90.R" route="1679.TA.92-1-N-j24-1.90.R" type="bus" depart="71100" line="1679.TA.92-1-N-j24-1.90.R">
        <param key="gtfs.route_name" value="1"/>
        <param key="gtfs.trip_headsign" value="St. Moritz, Bahnhof"/>
    </vehicle>
    <vehicle id="1689.TA.92-1-N-j24-1.90.R" route="1679.TA.92-1-N-j24-1.90.R" type="bus" depart="67140" line="1679.TA.92-1-N-j24-1.90.R">
        <param key="gtfs.route_name" value="1"/>
        <param key="gtfs.trip_headsign" value="St. Moritz, Bahnhof"/>
    </vehicle>
    <vehicle id="1716.TA.92-1-N-j24-1.90.R" route="1679.TA.92-1-N-j24-1.90.R" type="bus" depart="23940" line="1679.TA.92-1-N-j24-1.90.R">
        <param key="gtfs.route_name" value="1"/>
        <param key="gtfs.trip_headsign" value="St. Moritz, Bahnhof"/>
    </vehicle>
    <vehicle id="1816.TA.92-1-N-j24-1.90.R" route="1679.TA.92-1-N-j24-1.90.R" type="bus" depart="74700" line="1679.TA.92-1-N-j24-1.90.R">
        <param key="gtfs.route_name" value="1"/>
        <param key="gtfs.trip_headsign" value="St. Moritz, Bahnhof"/>
    </vehicle>
    <vehicle id="1854.TA.92-1-N-j24-1.90.R" route="1679.TA.92-1-N-j24-1.90.R" type="bus" depart="69300" line="1679.TA.92-1-N-j24-1.90.R">
        <param key="gtfs.route_name" value="1"/>
        <param key="gtfs.trip_headsign" value="St. Moritz, Bahnhof"/>
    </vehicle>
    <vehicle id="1857.TA.92-1-N-j24-1.90.R" route="1679.TA.92-1-N-j24-1.90.R" type="bus" depart="27540" line="1679.TA.92-1-N-j24-1.90.R">
        <param key="gtfs.route_name" value="1"/>
        <param key="gtfs.trip_headsign" value="St. Moritz, Bahnhof"/>
    </vehicle>
    <vehicle id="2056.TA.92-1-N-j24-1.14.R" route="2056.TA.92-1-N-j24-1.14.R" type="bus" depart="72420" line="2056.TA.92-1-N-j24-1.14.R">
        <param key="gtfs.route_name" value="1"/>
        <param key="gtfs.trip_headsign" value="Samedan, Bahnhof"/>
    </vehicle>
    <vehicle id="2122.TA.92-1-N-j24-1.14.R" route="2056.TA.92-1-N-j24-1.14.R" type="bus" depart="29220" line="2056.TA.92-1-N-j24-1.14.R">
        <param key="gtfs.route_name" value="1"/>
        <param key="gtfs.trip_headsign" value="Samedan, Bahnhof"/>
    </vehicle>
    <vehicle id="2167.TA.92-1-N-j24-1.14.R" route="2056.TA.92-1-N-j24-1.14.R" type="bus" depart="70620" line="2056.TA.92-1-N-j24-1.14.R">
        <param key="gtfs.route_name" value="1"/>
        <param key="gtfs.trip_headsign" value="Samedan, Bahnhof"/>
    </vehicle>
    <vehicle id="2280.TA.92-1-N-j24-1.14.R" route="2056.TA.92-1-N-j24-1.14.R" type="bus" depart="68820" line="2056.TA.92-1-N-j24-1.14.R">
        <param key="gtfs.route_name" value="1"/>
        <param key="gtfs.trip_headsign" value="Samedan, Bahnhof"/>
    </vehicle>
    <vehicle id="2330.TA.92-1-N-j24-1.14.R" route="2056.TA.92-1-N-j24-1.14.R" type="bus" depart="24720" line="2056.TA.92-1-N-j24-1.14.R">
        <param key="gtfs.route_name" value="1"/>
        <param key="gtfs.trip_headsign" value="Samedan, Bahnhof"/>
    </vehicle>
    <vehicle id="2351.TA.92-1-N-j24-1.91.R" route="2351.TA.92-1-N-j24-1.91.R" type="bus" depart="22740" line="2351.TA.92-1-N-j24-1.91.R">
        <param key="gtfs.route_name" value="1"/>
        <param key="gtfs.trip_headsign" value="Pontresina, Bahnhof"/>
    </vehicle>
    <vehicle id="2386.TA.92-1-N-j24-1.93.R" route="2386.TA.92-1-N-j24-1.93.R" type="bus" depart="25980" line="2386.TA.92-1-N-j24-1.93.R">
        <param key="gtfs.route_name" value="1"/>
        <param key="gtfs.trip_headsign" value="St. Moritz, Bahnhof"/>
    </vehicle>
    <vehicle id="2467.TA.92-1-N-j24-1.95.R" route="2467.TA.92-1-N-j24-1.95.R" type="bus" depart="34140" line="2467.TA.92-1-N-j24-1.95.R">
        <param key="gtfs.route_name" value="1"/>
        <param key="gtfs.trip_headsign" value="St. Moritz, Bahnhof"/>
    </vehicle>
    <vehicle id="2470.TA.92-1-N-j24-1.95.R" route="2467.TA.92-1-N-j24-1.95.R" type="bus" depart="30540" line="2467.TA.92-1-N-j24-1.95.R">
        <param key="gtfs.route_name" value="1"/>
        <param key="gtfs.trip_headsign" value="St. Moritz, Bahnhof"/>
    </vehicle>
    <vehicle id="2479.TA.92-1-N-j24-1.95.R" route="2467.TA.92-1-N-j24-1.95.R" type="bus" depart="55740" line="2467.TA.92-1-N-j24-1.95.R">
        <param key="gtfs.route_name" value="1"/>
        <param key="gtfs.trip_headsign" value="St. Moritz, Bahnhof"/>
    </vehicle>
    <vehicle id="2480.TA.92-1-N-j24-1.95.R" route="2467.TA.92-1-N-j24-1.95.R" type="bus" depart="48540" line="2467.TA.92-1-N-j24-1.95.R">
        <param key="gtfs.route_name" value="1"/>
        <param key="gtfs.trip_headsign" value="St. Moritz, Bahnhof"/>
    </vehicle>
    <vehicle id="2489.TA.92-1-N-j24-1.95.R" route="2467.TA.92-1-N-j24-1.95.R" type="bus" depart="52140" line="2467.TA.92-1-N-j24-1.95.R">
        <param key="gtfs.route_name" value="1"/>
        <param key="gtfs.trip_headsign" value="St. Moritz, Bahnhof"/>
    </vehicle>
    <vehicle id="2511.TA.92-1-N-j24-1.95.R" route="2467.TA.92-1-N-j24-1.95.R" type="bus" depart="37740" line="2467.TA.92-1-N-j24-1.95.R">
        <param key="gtfs.route_name" value="1"/>
        <param key="gtfs.trip_headsign" value="St. Moritz, Bahnhof"/>
    </vehicle>
    <vehicle id="2689.TA.92-1-N-j24-1.100.R" route="2689.TA.92-1-N-j24-1.100.R" type="bus" depart="28800" line="2689.TA.92-1-N-j24-1.100.R">
        <param key="gtfs.route_name" value="1"/>
        <param key="gtfs.trip_headsign" value="Samedan, Bahnhof"/>
    </vehicle>
    <vehicle id="2698.TA.92-1-N-j24-1.100.R" route="2689.TA.92-1-N-j24-1.100.R" type="bus" depart="25200" line="2689.TA.92-1-N-j24-1.100.R">
        <param key="gtfs.route_name" value="1"/>
        <param key="gtfs.trip_headsign" value="Samedan, Bahnhof"/>
    </vehicle>
    <vehicle id="277.TA.92-1-N-j24-1.2.H" route="277.TA.92-1-N-j24-1.2.H" type="bus" depart="25320" line="277.TA.92-1-N-j24-1.2.H">
        <param key="gtfs.route_name" value="1"/>
        <param key="gtfs.trip_headsign" value="Pontresina, Post"/>
    </vehicle>
    <vehicle id="2807.TA.92-1-N-j24-1.101.R" route="2807.TA.92-1-N-j24-1.101.R" type="bus" depart="64740" line="2807.TA.92-1-N-j24-1.101.R">
        <param key="gtfs.route_name" value="1"/>
        <param key="gtfs.trip_headsign" value="Samedan, Bahnhof"/>
    </vehicle>
    <vehicle id="2815.TA.92-1-N-j24-1.101.R" route="2807.TA.92-1-N-j24-1.101.R" type="bus" depart="46740" line="2807.TA.92-1-N-j24-1.101.R">
        <param key="gtfs.route_name" value="1"/>
        <param key="gtfs.trip_headsign" value="Samedan, Bahnhof"/>
    </vehicle>
    <vehicle id="2857.TA.92-1-N-j24-1.101.R" route="2807.TA.92-1-N-j24-1.101.R" type="bus" depart="62940" line="2807.TA.92-1-N-j24-1.101.R">
        <param key="gtfs.route_name" value="1"/>
        <param key="gtfs.trip_headsign" value="Samedan, Bahnhof"/>
    </vehicle>
    <vehicle id="2888.TA.92-1-N-j24-1.101.R" route="2807.TA.92-1-N-j24-1.101.R" type="bus" depart="44940" line="2807.TA.92-1-N-j24-1.101.R">
        <param key="gtfs.route_name" value="1"/>
        <param key="gtfs.trip_headsign" value="Samedan, Bahnhof"/>
    </vehicle>
    <vehicle id="2963.TA.92-1-N-j24-1.101.R" route="2807.TA.92-1-N-j24-1.101.R" type="bus" depart="61140" line="2807.TA.92-1-N-j24-1.101.R">
        <param key="gtfs.route_name" value="1"/>
        <param key="gtfs.trip_headsign" value="Samedan, Bahnhof"/>
    </vehicle>
    <vehicle id="3035.TA.92-1-N-j24-1.101.R" route="2807.TA.92-1-N-j24-1.101.R" type="bus" depart="50340" line="2807.TA.92-1-N-j24-1.101.R">
        <param key="gtfs.route_name" value="1"/>
        <param key="gtfs.trip_headsign" value="Samedan, Bahnhof"/>
    </vehicle>
    <vehicle id="3049.TA.92-1-N-j24-1.101.R" route="2807.TA.92-1-N-j24-1.101.R" type="bus" depart="59340" line="2807.TA.92-1-N-j24-1.101.R">
        <param key="gtfs.route_name" value="1"/>
        <param key="gtfs.trip_headsign" value="Samedan, Bahnhof"/>
    </vehicle>
    <vehicle id="3050.TA.92-1-N-j24-1.101.R" route="2807.TA.92-1-N-j24-1.101.R" type="bus" depart="32340" line="2807.TA.92-1-N-j24-1.101.R">
        <param key="gtfs.route_name" value="1"/>
        <param key="gtfs.trip_headsign" value="Samedan, Bahnhof"/>
    </vehicle>
    <vehicle id="3092.TA.92-1-N-j24-1.101.R" route="2807.TA.92-1-N-j24-1.101.R" type="bus" depart="35940" line="2807.TA.92-1-N-j24-1.101.R">
        <param key="gtfs.route_name" value="1"/>
        <param key="gtfs.trip_headsign" value="Samedan, Bahnhof"/>
    </vehicle>
    <vehicle id="3115.TA.92-1-N-j24-1.101.R" route="2807.TA.92-1-N-j24-1.101.R" type="bus" depart="41340" line="2807.TA.92-1-N-j24-1.101.R">
        <param key="gtfs.route_name" value="1"/>
        <param key="gtfs.trip_headsign" value="Samedan, Bahnhof"/>
    </vehicle>
    <vehicle id="3117.TA.92-1-N-j24-1.101.R" route="2807.TA.92-1-N-j24-1.101.R" type="bus" depart="53940" line="2807.TA.92-1-N-j24-1.101.R">
        <param key="gtfs.route_name" value="1"/>
        <param key="gtfs.trip_headsign" value="Samedan, Bahnhof"/>
    </vehicle>
    <vehicle id="313.TA.92-1-N-j24-1.79.H" route="313.TA.92-1-N-j24-1.79.H" type="bus" depart="24900" line="313.TA.92-1-N-j24-1.79.H">
        <param key="gtfs.route_name" value="1"/>
        <param key="gtfs.trip_headsign" value="Champfèr, Guardalej"/>
    </vehicle>
    <vehicle id="3156.TA.92-1-N-j24-1.101.R" route="2807.TA.92-1-N-j24-1.101.R" type="bus" depart="57540" line="2807.TA.92-1-N-j24-1.101.R">
        <param key="gtfs.route_name" value="1"/>
        <param key="gtfs.trip_headsign" value="Samedan, Bahnhof"/>
    </vehicle>
    <vehicle id="3222.TA.92-1-N-j24-1.101.R" route="2807.TA.92-1-N-j24-1.101.R" type="bus" depart="43140" line="2807.TA.92-1-N-j24-1.101.R">
        <param key="gtfs.route_name" value="1"/>
        <param key="gtfs.trip_headsign" value="Samedan, Bahnhof"/>
    </vehicle>
    <vehicle id="3378.TA.92-1-N-j24-1.101.R" route="2807.TA.92-1-N-j24-1.101.R" type="bus" depart="39540" line="2807.TA.92-1-N-j24-1.101.R">
        <param key="gtfs.route_name" value="1"/>
        <param key="gtfs.trip_headsign" value="Samedan, Bahnhof"/>
    </vehicle>
    <vehicle id="345.TA.92-1-N-j24-1.4.H" route="345.TA.92-1-N-j24-1.4.H" type="bus" depart="68400" line="345.TA.92-1-N-j24-1.4.H">
        <param key="gtfs.route_name" value="1"/>
        <param key="gtfs.trip_headsign" value="Pontresina, Post"/>
    </vehicle>
    <vehicle id="544.TA.92-1-N-j24-1.4.H" route="345.TA.92-1-N-j24-1.4.H" type="bus" depart="27000" line="345.TA.92-1-N-j24-1.4.H">
        <param key="gtfs.route_name" value="1"/>
        <param key="gtfs.trip_headsign" value="Pontresina, Post"/>
    </vehicle>
    <vehicle id="547.TA.92-1-N-j24-1.4.H" route="345.TA.92-1-N-j24-1.4.H" type="bus" depart="70200" line="345.TA.92-1-N-j24-1.4.H">
        <param key="gtfs.route_name" value="1"/>
        <param key="gtfs.trip_headsign" value="Pontresina, Post"/>
    </vehicle>
    <vehicle id="634.TA.92-1-N-j24-1.81.H" route="634.TA.92-1-N-j24-1.81.H" type="bus" depart="43500" line="634.TA.92-1-N-j24-1.81.H">
        <param key="gtfs.route_name" value="1"/>
        <param key="gtfs.trip_headsign" value="Surlej, Corvatschbahn"/>
    </vehicle>
    <vehicle id="681.TA.92-1-N-j24-1.81.H" route="634.TA.92-1-N-j24-1.81.H" type="bus" depart="39900" line="634.TA.92-1-N-j24-1.81.H">
        <param key="gtfs.route_name" value="1"/>
        <param key="gtfs.trip_headsign" value="Surlej, Corvatschbahn"/>
    </vehicle>
    <vehicle id="7.TA.92-1-N-j24-1.77.H" route="154.TA.92-1-N-j24-1.77.H" type="bus" depart="27300" line="154.TA.92-1-N-j24-1.77.H">
        <param key="gtfs.route_name" value="1"/>
        <param key="gtfs.trip_headsign" value="St. Moritz Bad, Via San Gian"/>
    </vehicle>
    <vehicle id="712.TA.92-1-N-j24-1.81.H" route="634.TA.92-1-N-j24-1.81.H" type="bus" depart="54300" line="634.TA.92-1-N-j24-1.81.H">
        <param key="gtfs.route_name" value="1"/>
        <param key="gtfs.trip_headsign" value="Surlej, Corvatschbahn"/>
    </vehicle>
    <vehicle id="713.TA.92-1-N-j24-1.81.H" route="634.TA.92-1-N-j24-1.81.H" type="bus" depart="57900" line="634.TA.92-1-N-j24-1.81.H">
        <param key="gtfs.route_name" value="1"/>
        <param key="gtfs.trip_headsign" value="Surlej, Corvatschbahn"/>
    </vehicle>
    <vehicle id="721.TA.92-1-N-j24-1.81.H" route="634.TA.92-1-N-j24-1.81.H" type="bus" depart="29100" line="634.TA.92-1-N-j24-1.81.H">
        <param key="gtfs.route_name" value="1"/>
        <param key="gtfs.trip_headsign" value="Surlej, Corvatschbahn"/>
    </vehicle>
    <vehicle id="733.TA.92-1-N-j24-1.81.H" route="634.TA.92-1-N-j24-1.81.H" type="bus" depart="36300" line="634.TA.92-1-N-j24-1.81.H">
        <param key="gtfs.route_name" value="1"/>
        <param key="gtfs.trip_headsign" value="Surlej, Corvatschbahn"/>
    </vehicle>
    <vehicle id="842.TA.92-1-N-j24-1.85.H" route="842.TA.92-1-N-j24-1.85.H" type="bus" depart="66600" line="842.TA.92-1-N-j24-1.85.H">
        <param key="gtfs.route_name" value="1"/>
        <param key="gtfs.trip_headsign" value="St. Moritz Bad, Via San Gian"/>
    </vehicle>
    <vehicle id="865.TA.92-1-N-j24-1.88.H" route="1008.TA.92-1-N-j24-1.88.H" type="bus" depart="63000" line="1008.TA.92-1-N-j24-1.88.H">
        <param key="gtfs.route_name" value="1"/>
        <param key="gtfs.trip_headsign" value="Surlej, Foppas"/>
    </vehicle>
    <vehicle id="95.TA.92-1-N-j24-1.77.H" route="154.TA.92-1-N-j24-1.77.H" type="bus" depart="72300" line="154.TA.92-1-N-j24-1.77.H">
        <param key="gtfs.route_name" value="1"/>
        <param key="gtfs.trip_headsign" value="St. Moritz Bad, Via San Gian"/>
    </vehicle>
    <vehicle id="1037.TA.92-10-J-j24-1.76.R" route="1037.TA.92-10-J-j24-1.76.R" type="bus" depart="83820" line="1037.TA.92-10-J-j24-1.76.R">
        <param key="gtfs.route_name" value="10"/>
        <param key="gtfs.trip_headsign" value="S-chanf, Chesa cumünela"/>
    </vehicle>
    <vehicle id="108.TA.92-10-J-j24-1.2.H" route="108.TA.92-10-J-j24-1.2.H" type="bus" depart="88560" line="108.TA.92-10-J-j24-1.2.H">
        <param key="gtfs.route_name" value="10"/>
        <param key="gtfs.trip_headsign" value="Pontresina, Godin"/>
    </vehicle>
    <vehicle id="1109.TA.92-10-J-j24-1.77.R" route="1109.TA.92-10-J-j24-1.77.R" type="bus" depart="87960" line="1109.TA.92-10-J-j24-1.77.R">
        <param key="gtfs.route_name" value="10"/>
        <param key="gtfs.trip_headsign" value="Cinuos-chel-Brail, staziun"/>
    </vehicle>
    <vehicle id="1136.TA.92-10-J-j24-1.22.R" route="1136.TA.92-10-J-j24-1.22.R" type="bus" depart="78300" line="1136.TA.92-10-J-j24-1.22.R">
        <param key="gtfs.route_name" value="10"/>
        <param key="gtfs.trip_headsign" value="Samedan, Bahnhof"/>
    </vehicle>
    <vehicle id="1138.TA.92-10-J-j24-1.22.R" route="1136.TA.92-10-J-j24-1.22.R" type="bus" depart="85500" line="1136.TA.92-10-J-j24-1.22.R">
        <param key="gtfs.route_name" value="10"/>
        <param key="gtfs.trip_headsign" value="Samedan, Bahnhof"/>
    </vehicle>
    <vehicle id="1138.TA.92-10-J-j24-1.22.R.trimmed" route="1138.TA.92-10-J-j24-1.22.R.trimmed" type="bus" depart="86520" line="1138.TA.92-10-J-j24-1.22.R.trimmed">
        <param key="gtfs.route_name" value="10"/>
        <param key="gtfs.trip_headsign" value="Samedan, Bahnhof"/>
    </vehicle>
    <vehicle id="1290.TA.92-10-J-j24-1.22.R" route="1136.TA.92-10-J-j24-1.22.R" type="bus" depart="81900" line="1136.TA.92-10-J-j24-1.22.R">
        <param key="gtfs.route_name" value="10"/>
        <param key="gtfs.trip_headsign" value="Samedan, Bahnhof"/>
    </vehicle>
    <vehicle id="16.TA.92-10-J-j24-1.1.H" route="16.TA.92-10-J-j24-1.1.H" type="bus" depart="83160" line="16.TA.92-10-J-j24-1.1.H">
        <param key="gtfs.route_name" value="10"/>
        <param key="gtfs.trip_headsign" value="Pontresina, Post"/>
    </vehicle>
    <vehicle id="161.TA.92-10-J-j24-1.75.H" route="161.TA.92-10-J-j24-1.75.H" type="bus" depart="86340" line="161.TA.92-10-J-j24-1.75.H">
        <param key="gtfs.route_name" value="10"/>
        <param key="gtfs.trip_headsign" value="Pontresina, Post"/>
    </vehicle>
    <vehicle id="161.TA.92-10-J-j24-1.75.H.trimmed" route="161.TA.92-10-J-j24-1.75.H.trimmed" type="bus" depart="86460" line="161.TA.92-10-J-j24-1.75.H.trimmed">
        <param key="gtfs.route_name" value="10"/>
        <param key="gtfs.trip_headsign" value="Pontresina, Post"/>
    </vehicle>
    <vehicle id="262.TA.92-10-J-j24-1.4.H" route="262.TA.92-10-J-j24-1.4.H" type="bus" depart="76800" line="262.TA.92-10-J-j24-1.4.H">
        <param key="gtfs.route_name" value="10"/>
        <param key="gtfs.trip_headsign" value="St. Moritz Bad, Via San Gian"/>
    </vehicle>
    <vehicle id="31.TA.92-10-J-j24-1.1.H" route="16.TA.92-10-J-j24-1.1.H" type="bus" depart="75360" line="16.TA.92-10-J-j24-1.1.H">
        <param key="gtfs.route_name" value="10"/>
        <param key="gtfs.trip_headsign" value="Pontresina, Post"/>
    </vehicle>
    <vehicle id="319.TA.92-10-J-j24-1.5.H" route="319.TA.92-10-J-j24-1.5.H" type="bus" depart="72360" line="319.TA.92-10-J-j24-1.5.H">
        <param key="gtfs.route_name" value="10"/>
        <param key="gtfs.trip_headsign" value="St. Moritz Bad, Via San Gian"/>
    </vehicle>
    <vehicle id="369.TA.92-10-J-j24-1.5.H" route="319.TA.92-10-J-j24-1.5.H" type="bus" depart="79560" line="319.TA.92-10-J-j24-1.5.H">
        <param key="gtfs.route_name" value="10"/>
        <param key="gtfs.trip_headsign" value="St. Moritz Bad, Via San Gian"/>
    </vehicle>
    <vehicle id="459.TA.92-10-J-j24-1.71.H" route="459.TA.92-10-J-j24-1.71.H" type="bus" depart="74160" line="459.TA.92-10-J-j24-1.71.H">
        <param key="gtfs.route_name" value="10"/>
        <param key="gtfs.trip_headsign" value="Maloja, Posta"/>
    </vehicle>
    <vehicle id="467.TA.92-10-J-j24-1.71.H" route="459.TA.92-10-J-j24-1.71.H" type="bus" depart="81360" line="459.TA.92-10-J-j24-1.71.H">
        <param key="gtfs.route_name" value="10"/>
        <param key="gtfs.trip_headsign" value="Maloja, Posta"/>
    </vehicle>
    <vehicle id="510.TA.92-10-J-j24-1.71.H" route="459.TA.92-10-J-j24-1.71.H" type="bus" depart="84960" line="459.TA.92-10-J-j24-1.71.H">
        <param key="gtfs.route_name" value="10"/>
        <param key="gtfs.trip_headsign" value="Maloja, Posta"/>
    </vehicle>
    <vehicle id="510.TA.92-10-J-j24-1.71.H.trimmed" route="510.TA.92-10-J-j24-1.71.H.trimmed" type="bus" depart="86700" line="510.TA.92-10-J-j24-1.71.H.trimmed">
        <param key="gtfs.route_name" value="10"/>
        <param key="gtfs.trip_headsign" value="Maloja, Posta"/>
    </vehicle>
    <vehicle id="532.TA.92-10-J-j24-1.71.H" route="459.TA.92-10-J-j24-1.71.H" type="bus" depart="77760" line="459.TA.92-10-J-j24-1.71.H">
        <param key="gtfs.route_name" value="10"/>
        <param key="gtfs.trip_headsign" value="Maloja, Posta"/>
    </vehicle>
    <vehicle id="679.TA.92-10-J-j24-1.13.R" route="679.TA.92-10-J-j24-1.13.R" type="bus" depart="76020" line="679.TA.92-10-J-j24-1.13.R">
        <param key="gtfs.route_name" value="10"/>
        <param key="gtfs.trip_headsign" value="Samedan, Bahnhof"/>
    </vehicle>
    <vehicle id="750.TA.92-10-J-j24-1.14.R" route="750.TA.92-10-J-j24-1.14.R" type="bus" depart="74640" line="750.TA.92-10-J-j24-1.14.R">
        <param key="gtfs.route_name" value="10"/>
        <param key="gtfs.trip_headsign" value="Samedan, Bahnhof"/>
    </vehicle>
    <vehicle id="823.TA.92-10-J-j24-1.15.R" route="823.TA.92-10-J-j24-1.15.R" type="bus" depart="76500" line="823.TA.92-10-J-j24-1.15.R">
        <param key="gtfs.route_name" value="10"/>
        <param key="gtfs.trip_headsign" value="Samedan, Bahnhof"/>
    </vehicle>
    <vehicle id="856.TA.92-10-J-j24-1.15.R" route="823.TA.92-10-J-j24-1.15.R" type="bus" depart="81900" line="823.TA.92-10-J-j24-1.15.R">
        <param key="gtfs.route_name" value="10"/>
        <param key="gtfs.trip_headsign" value="Samedan, Bahnhof"/>
    </vehicle>
    <vehicle id="903.TA.92-10-J-j24-1.15.R" route="823.TA.92-10-J-j24-1.15.R" type="bus" depart="78300" line="823.TA.92-10-J-j24-1.15.R">
        <param key="gtfs.route_name" value="10"/>
        <param key="gtfs.trip_headsign" value="Samedan, Bahnhof"/>
    </vehicle>
    <vehicle id="932.TA.92-10-J-j24-1.17.R" route="932.TA.92-10-J-j24-1.17.R" type="bus" depart="72240" line="932.TA.92-10-J-j24-1.17.R">
        <param key="gtfs.route_name" value="10"/>
        <param key="gtfs.trip_headsign" value="Samedan, Bahnhof"/>
    </vehicle>
    <vehicle id="4.TA.92-15-Y-j24-1.3.H" route="4.TA.92-15-Y-j24-1.3.H" type="bus" depart="81360" line="4.TA.92-15-Y-j24-1.3.H">
        <param key="gtfs.route_name" value="B"/>
        <param key="gtfs.trip_headsign" value="Lavin, Bahnhof"/>
    </vehicle>
    <vehicle id="5.TA.92-15-Y-j24-1.3.H" route="4.TA.92-15-Y-j24-1.3.H" type="bus" depart="77760" line="4.TA.92-15-Y-j24-1.3.H">
        <param key="gtfs.route_name" value="B"/>
        <param key="gtfs.trip_headsign" value="Lavin, Bahnhof"/>
    </vehicle>
    <vehicle id="6.TA.92-15-Y-j24-1.3.H" route="4.TA.92-15-Y-j24-1.3.H" type="bus" depart="74160" line="4.TA.92-15-Y-j24-1.3.H">
        <param key="gtfs.route_name" value="B"/>
        <param key="gtfs.trip_headsign" value="Lavin, Bahnhof"/>
    </vehicle>
    <vehicle id="7.TA.92-15-Y-j24-1.4.R" route="7.TA.92-15-Y-j24-1.4.R" type="bus" depart="76440" line="7.TA.92-15-Y-j24-1.4.R">
        <param key="gtfs.route_name" value="B"/>
        <param key="gtfs.trip_headsign" value="Cinuos-chel-Brail, staziun"/>
    </vehicle>
    <vehicle id="8.TA.92-15-Y-j24-1.4.R" route="7.TA.92-15-Y-j24-1.4.R" type="bus" depart="80040" line="7.TA.92-15-Y-j24-1.4.R">
        <param key="gtfs.route_name" value="B"/>
        <param key="gtfs.trip_headsign" value="Cinuos-chel-Brail, staziun"/>
    </vehicle>
    <vehicle id="9.TA.92-15-Y-j24-1.4.R" route="7.TA.92-15-Y-j24-1.4.R" type="bus" depart="83640" line="7.TA.92-15-Y-j24-1.4.R">
        <param key="gtfs.route_name" value="B"/>
        <param key="gtfs.trip_headsign" value="Cinuos-chel-Brail, staziun"/>
    </vehicle>
    <vehicle id="1.TA.92-188-A-j24-1.3.H" route="1.TA.92-188-A-j24-1.3.H" type="bus" depart="35400" line="1.TA.92-188-A-j24-1.3.H">
        <param key="gtfs.route_name" value="188"/>
        <param key="gtfs.trip_headsign" value="Sur GR Alp Flix, Tigias Hotel"/>
    </vehicle>
    <vehicle id="10.TA.92-188-A-j24-1.4.R" route="10.TA.92-188-A-j24-1.4.R" type="bus" depart="39600" line="10.TA.92-188-A-j24-1.4.R">
        <param key="gtfs.route_name" value="188"/>
        <param key="gtfs.trip_headsign" value="Sur, plazza dalla posta"/>
    </vehicle>
    <vehicle id="2.TA.92-188-A-j24-1.3.H" route="1.TA.92-188-A-j24-1.3.H" type="bus" depart="53400" line="1.TA.92-188-A-j24-1.3.H">
        <param key="gtfs.route_name" value="188"/>
        <param key="gtfs.trip_headsign" value="Sur GR Alp Flix, Tigias Hotel"/>
    </vehicle>
    <vehicle id="3.TA.92-188-A-j24-1.3.H" route="1.TA.92-188-A-j24-1.3.H" type="bus" depart="39000" line="1.TA.92-188-A-j24-1.3.H">
        <param key="gtfs.route_name" value="188"/>
        <param key="gtfs.trip_headsign" value="Sur GR Alp Flix, Tigias Hotel"/>
    </vehicle>
    <vehicle id="4.TA.92-188-A-j24-1.3.H" route="1.TA.92-188-A-j24-1.3.H" type="bus" depart="42600" line="1.TA.92-188-A-j24-1.3.H">
        <param key="gtfs.route_name" value="188"/>
        <param key="gtfs.trip_headsign" value="Sur GR Alp Flix, Tigias Hotel"/>
    </vehicle>
    <vehicle id="5.TA.92-188-A-j24-1.3.H" route="1.TA.92-188-A-j24-1.3.H" type="bus" depart="60600" line="1.TA.92-188-A-j24-1.3.H">
        <param key="gtfs.route_name" value="188"/>
        <param key="gtfs.trip_headsign" value="Sur GR Alp Flix, Tigias Hotel"/>
    </vehicle>
    <vehicle id="6.TA.92-188-A-j24-1.4.R" route="10.TA.92-188-A-j24-1.4.R" type="bus" depart="61200" line="10.TA.92-188-A-j24-1.4.R">
        <param key="gtfs.route_name" value="188"/>
        <param key="gtfs.trip_headsign" value="Sur, plazza dalla posta"/>
    </vehicle>
    <vehicle id="7.TA.92-188-A-j24-1.4.R" route="10.TA.92-188-A-j24-1.4.R" type="bus" depart="36000" line="10.TA.92-188-A-j24-1.4.R">
        <param key="gtfs.route_name" value="188"/>
        <param key="gtfs.trip_headsign" value="Sur, plazza dalla posta"/>
    </vehicle>
    <vehicle id="8.TA.92-188-A-j24-1.4.R" route="10.TA.92-188-A-j24-1.4.R" type="bus" depart="54000" line="10.TA.92-188-A-j24-1.4.R">
        <param key="gtfs.route_name" value="188"/>
        <param key="gtfs.trip_headsign" value="Sur, plazza dalla posta"/>
    </vehicle>
    <vehicle id="9.TA.92-188-A-j24-1.4.R" route="10.TA.92-188-A-j24-1.4.R" type="bus" depart="43200" line="10.TA.92-188-A-j24-1.4.R">
        <param key="gtfs.route_name" value="188"/>
        <param key="gtfs.trip_headsign" value="Sur, plazza dalla posta"/>
    </vehicle>
    <vehicle id="1034.TA.92-2-L-j24-1.15.H" route="1034.TA.92-2-L-j24-1.15.H" type="bus" depart="44040" line="1034.TA.92-2-L-j24-1.15.H">
        <param key="gtfs.route_name" value="2"/>
        <param key="gtfs.trip_headsign" value="Maloja, Posta"/>
    </vehicle>
    <vehicle id="112.TA.92-2-L-j24-1.3.H" route="112.TA.92-2-L-j24-1.3.H" type="bus" depart="31440" line="112.TA.92-2-L-j24-1.3.H">
        <param key="gtfs.route_name" value="2"/>
        <param key="gtfs.trip_headsign" value="Silvaplana, Camping"/>
    </vehicle>
    <vehicle id="116.TA.92-2-L-j24-1.3.H" route="112.TA.92-2-L-j24-1.3.H" type="bus" depart="60240" line="112.TA.92-2-L-j24-1.3.H">
        <param key="gtfs.route_name" value="2"/>
        <param key="gtfs.trip_headsign" value="Silvaplana, Camping"/>
    </vehicle>