<?xml version="1.0" encoding="UTF-8"?>

<!-- generated by Eclipse SUMO netedit 1.26.0
-->

<additional xmlns:xsi="http://www.w3.org/2001/XMLSchema-instance" xsi:noNamespaceSchemaLocation="http://sumo.dlr.de/xsd/additional_file.xsd">
    <!-- StoppingPlaces -->
    <busStop id="1.TA.92-188-A-j24-1.3.H.0" name="Sur, plazza dalla posta" lane="897592618_0" startPos="0.00" endPos="15.00" friendlyPos="1"/>
    <busStop id="1.TA.92-188-A-j24-1.3.H.1" name="Sur GR Alp Flix, Truaschigna" lane="170975832#3_0" startPos="327.94" endPos="342.94" friendlyPos="1"/>
    <busStop id="1.TA.92-188-A-j24-1.3.H.2" name="Sur GR Alp Flix, Tgalucas" lane="897901306_0" startPos="0.00" endPos="15.00" friendlyPos="1"/>
    <busStop id="1.TA.92-188-A-j24-1.3.H.3" name="Sur GR Alp Flix, Tigias Hotel" lane="116515434_0" startPos="0.00" endPos="6.18" friendlyPos="1"/>
    <busStop id="1.TA.92-20-E-j24-1.5.H.0" name="Silvaplana, Mandra" lane="187198083#0_0" startPos="4.98" endPos="19.98" friendlyPos="1"/>
    <busStop id="1.TA.92-20-E-j24-1.5.H.2" name="Silvaplana, Baselgia" lane="187198083#3_0" startPos="40.63" endPos="55.63" friendlyPos="1"/>
    <busStop id="1.TA.92-20-E-j24-1.5.H.3" name="Silvaplana, Plazza dal Güglia" lane="187198083#7_0" startPos="3.17" endPos="18.17" friendlyPos="1"/>
    <busStop id="1.TA.92-20-E-j24-1.5.H.4" name="Silvaplana, Plazza dal Mastrel" lane="18887954#0_0" startPos="0.00" endPos="13.24" friendlyPos="1"/>
    <busStop id="1.TA.92-20-E-j24-1.5.H.5" name="Silvaplana, Munteratsch" lane="185833040#1_0" startPos="8.03" endPos="23.03" friendlyPos="1"/>
    <busStop id="1.TA.92-4-Q-j24-1.1.R.12" name="St. Moritz Bad, Reithalle" lane="1113136564#0_0" startPos="0.00" endPos="9.87" friendlyPos="1"/>
    <busStop id="1.TA.92-4-Q-j24-1.1.R.13" name="St. Moritz, Bahnhof" lane="519913257#1_0" startPos="5.00" endPos="25.00" friendlyPos="1"/>
    <busStop id="1.TA.92-591-A-j24-1.1.H.0" name="Bergün/Bravuogn, staziun" lane="-22987122#1_0" startPos="0.00" endPos="15.00" friendlyPos="1"/>
    <busStop id="1.TA.92-591-A-j24-1.1.H.1" name="Latsch" lane="-22529831#3_0" startPos="3.98" endPos="18.98" friendlyPos="1"/>
    <busStop id="1.TA.92-591-A-j24-1.1.H.2" name="Stugl/Stuls, Dorf" lane="-903407330_0" startPos="73.10" endPos="88.10" friendlyPos="1"/>
    <busStop id="1.TA.92-592-j24-1.1.H.1" name="Bergün/Bravuogn, Tuors Davant" lane="70810937#1_0" startPos="68.76" endPos="83.76" friendlyPos="1"/>
    <busStop id="1.TA.92-592-j24-1.1.H.2" name="Bergün/Bravuogn, Tuors Chants" lane="70810788#3_0" startPos="0.00" endPos="15.00" friendlyPos="1"/>
    <busStop id="1.TA.92-593-A-j24-1.1.H.1" name="La Punt Chamues-ch, Bahnhof" lane="54434842#1_0" startPos="96.30" endPos="109.30" friendlyPos="1"/>
    <busStop id="1.TA.92-593-A-j24-1.1.H.2" name="La Punt, Alp Alesch" lane="-1428282458_0" startPos="0.00" endPos="15.00" friendlyPos="1"/>
    <busStop id="1.TA.92-593-A-j24-1.1.H.3" name="La Punt, Parkplatz Es-cha" lane="-269392429#4_0" startPos="0.93" endPos="15.93" friendlyPos="1"/>
    <busStop id="1.TA.92-593-A-j24-1.1.H.4" name="Albulapass, Hospiz" lane="-471148551#5_0" startPos="0.00" endPos="0.20" friendlyPos="1"/>
    <busStop id="1.TA.92-593-A-j24-1.1.H.5" name="Preda, Crap Alv" lane="-471725076#0_0" startPos="0.00" endPos="15.00" friendlyPos="1"/>
    <busStop id="1.TA.92-593-A-j24-1.1.H.6" name="Preda, Lai da Palpuogna" lane="-1274500275#8_0" startPos="70.33" endPos="85.33" friendlyPos="1"/>
    <busStop id="1.TA.92-593-A-j24-1.1.H.7" name="Preda, Hotel Kulm/Bahnhof" lane="211921106_0" startPos="0.00" endPos="5.37" friendlyPos="1"/>
    <busStop id="1.TA.92-705-C-j24-1.1.H.1" name="La Motta, Dogana" lane="230829695#0_0" startPos="0.00" endPos="15.00" friendlyPos="1"/>
    <busStop id="1.TA.92-705-C-j24-1.1.H.2" name="Forcola di Livigno, dogana Ita" lane="-470932002#1_0" startPos="1.46" endPos="16.46" friendlyPos="1"/>
    <busStop id="1.TA.92-705-C-j24-1.1.H.3" name="Livigno, Val dal Fain" lane="-305844977#0_0" startPos="9.18" endPos="24.18" friendlyPos="1"/>
    <busStop id="1.TA.96-282-4-j24-1.8.H.1" name="Alvaschein, Solisbrücke" lane="47497927_0" startPos="0.00" endPos="13.00" friendlyPos="1"/>
    <busStop id="1.TA.96-282-4-j24-1.8.H.2" name="Vaz/Obervaz, Solis" lane="967072415#1_0" startPos="58.17" endPos="73.17" friendlyPos="1"/>
    <busStop id="1.TA.96-282-4-j24-1.8.H.3" name="Mutten, Unterdorf" lane="806126474_0" startPos="0.00" endPos="15.00" friendlyPos="1"/>
    <busStop id="1.TA.96-282-4-j24-1.8.H.4" name="Mutten, Dorfmitte" lane="806126476#1_0" startPos="0.00" endPos="15.00" friendlyPos="1"/>
    <busStop id="1.TA.96-283-6-j24-1.1.H.10" name="Avers, Abzw. Valle di Lei" lane="38694686#1_0" startPos="765.15" endPos="780.15" friendlyPos="1"/>
    <busStop id="1.TA.96-283-6-j24-1.1.H.11" name="Avers, Campsut" lane="38694690#1_0" startPos="74.56" endPos="89.56" friendlyPos="1"/>
    <busStop id="1.TA.96-283-6-j24-1.1.H.12" name="Avers, Cröt" lane="38694690#3_0" startPos="591.15" endPos="606.15" friendlyPos="1"/>
    <busStop id="1.TA.96-283-6-j24-1.1.H.13" name="Avers, Lezibrücke" lane="916850589#0_0" startPos="185.43" endPos="200.43" friendlyPos="1"/>
    <busStop id="1.TA.96-283-6-j24-1.1.H.14" name="Avers, Cresta" lane="961236599#1_0" startPos="247.83" endPos="262.83" friendlyPos="1"/>
    <busStop id="1.TA.96-283-6-j24-1.1.H.15" name="Avers, Pürt" lane="320560205#0_0" startPos="69.41" endPos="84.41" friendlyPos="1"/>
    <busStop id="1.TA.96-283-6-j24-1.1.H.16" name="Avers, Am Bach" lane="320560205#4_0" startPos="73.89" endPos="88.89" friendlyPos="1"/>
    <busStop id="1.TA.96-283-6-j24-1.1.H.17" name="Avers, Juppa" lane="304719789#2_0" startPos="0.00" endPos="15.00" friendlyPos="1"/>
    <busStop id="1.TA.96-283-6-j24-1.1.H.18" name="Avers, Rufana" lane="67386045#2_0" startPos="50.62" endPos="65.62" friendlyPos="1"/>
    <busStop id="1.TA.96-283-6-j24-1.1.H.19" name="Avers, Podestats Haus" lane="67386045#5_0" startPos="147.57" endPos="162.57" friendlyPos="1"/>
    <busStop id="1.TA.96-283-6-j24-1.1.H.20" name="Avers, Juf" lane="241041896_0" startPos="55.40" endPos="70.40" friendlyPos="1"/>
    <busStop id="1.TA.96-283-6-j24-1.1.H.9" name="Ferrera, Abzw. Val digl Uors" lane="1089887708#0_0" startPos="127.63" endPos="142.63" friendlyPos="1"/>
    <busStop id="1.TA.96-290-3-j24-1.1.H.0" name="Soglio, Villaggio" lane="62065386_0" startPos="0.00" endPos="15.00" friendlyPos="1"/>
    <busStop id="1.TA.96-290-3-j24-1.1.H.1" name="Soglio, Plazza" lane="370855281#1_0" startPos="155.46" endPos="170.46" friendlyPos="1"/>
    <busStop id="1.TA.96-290-3-j24-1.1.H.2" name="Promontogno, Ospedale Flin" lane="370855281#6_0" startPos="444.42" endPos="459.42" friendlyPos="1"/>
    <busStop id="1.TA.96-290-3-j24-1.1.H.3" name="Spino" lane="429497063#1_0" startPos="0.00" endPos="13.00" friendlyPos="1"/>
    <busStop id="1.TA.96-290-3-j24-1.1.H.4" name="Promontogno, Posta" lane="120829159_0" startPos="5.00" endPos="15.00" friendlyPos="1"/>
    <busStop id="1.TA.96-292-6-j24-1.1.H.1" name="Lungacqua" lane="-506786371#0_0" startPos="1428.08" endPos="1441.08" friendlyPos="1"/>
    <busStop id="1.TA.96-292-6-j24-1.1.H.2" name="Alp Camp" lane="-506786371#0_0" startPos="2068.01" endPos="2083.01" friendlyPos="1"/>
    <busStop id="1.TA.96-293-0-j24-1.1.H.2" name="Li Curt, Madreda" lane="83924928#2_0" startPos="0.00" endPos="13.00" friendlyPos="1"/>
    <busStop id="1.TA.96-293-0-j24-1.1.H.3" name="Li Curt, Selva" lane="318286903#2_0" startPos="64.67" endPos="77.67" friendlyPos="1"/>
    <busStop id="1.TA.96-301-2-j24-1.1.H.1" name="Prazet" lane="140549298#5_0" startPos="14.82" endPos="27.82" friendlyPos="1"/>
    <busStop id="1.TA.96-301-2-j24-1.1.H.2" name="Brail" lane="1277640407#1_0" startPos="0.00" endPos="5.33" friendlyPos="1"/>
    <busStop id="10.TA.92-188-A-j24-1.4.R.1" name="Sur GR Alp Flix, Tigias Hotel" lane="-116515434_0" startPos="0.00" endPos="6.18" friendlyPos="1"/>
    <busStop id="10.TA.92-188-A-j24-1.4.R.2" name="Sur GR Alp Flix, Truaschigna" lane="-170975832#3_0" startPos="0.00" endPos="15.00" friendlyPos="1"/>
    <busStop id="10.TA.92-188-A-j24-1.4.R.3" name="Sur, plazza dalla posta" lane="230537757_0" startPos="13.83" endPos="28.83" friendlyPos="1"/>
    <busStop id="10.TA.92-2-Y-j24-1.1.H.1" name="Alvaneu Dorf, Dorfplatz" lane="599591080_0" startPos="0.00" endPos="13.00" friendlyPos="1"/>
    <busStop id="10.TA.92-2-Y-j24-1.1.H.2" name="Alvaneu, Bahnhof" lane="-30890321_0" startPos="15.00" endPos="30.00" friendlyPos="1"/>
    <busStop id="10.TA.92-2-Y-j24-1.1.H.3" name="Alvaneu Bad, Dorfplatz" lane="-591644951#2_0" startPos="0.00" endPos="15.00" friendlyPos="1"/>
    <busStop id="10.TA.92-2-Y-j24-1.1.H.4" name="Alvaneu Bad, Badezentrum" lane="472364554_0" startPos="163.83" endPos="176.83" friendlyPos="1"/>
    <busStop id="10.TA.92-2-Y-j24-1.1.H.5" name="Alvaneu Bad, Solas" lane="472364555#1_0" startPos="0.00" endPos="15.00" friendlyPos="1"/>
    <busStop id="10.TA.92-2-Y-j24-1.1.H.6" name="Filisur, Valleglia" lane="1259390281#2_0" startPos="0.00" endPos="13.00" friendlyPos="1"/>
    <busStop id="10.TA.92-2-Y-j24-1.1.H.7" name="Filisur, Dorf" lane="-59275400#0_0" startPos="6.55" endPos="19.55" friendlyPos="1"/>
    <busStop id="10.TA.92-2-Y-j24-1.1.H.8" name="Filisur, Schöntal" lane="591644944#0_0" startPos="8.89" endPos="23.89" friendlyPos="1"/>
    <busStop id="10.TA.92-2-Y-j24-1.1.H.9" name="Filisur, Bahnhof" lane="690318937_0" startPos="3.85" endPos="18.85" friendlyPos="1"/>
    <busStop id="10.TA.92-591-A-j24-1.3.R.0" name="Stugl/Stuls, Dorf" lane="945265859#5_0" startPos="40.69" endPos="55.69" friendlyPos="1"/>
    <busStop id="10.TA.92-591-A-j24-1.3.R.1" name="Latsch" lane="22529831#3_0" startPos="122.41" endPos="137.41" friendlyPos="1"/>
    <busStop id="10.TA.92-591-A-j24-1.3.R.2" name="Bergün/Bravuogn, staziun" lane="22987122#0_0" startPos="25.20" endPos="40.20" friendlyPos="1"/>
    <busStop id="10.TA.92-591-A-j24-1.3.R.3" name="Bergün/Bravuogn, posta" lane="127417609_0" startPos="0.00" endPos="10.65" friendlyPos="1"/>
    <busStop id="10.TA.92-705-C-j24-1.6.R.0" name="Livigno, Val dal Fain" lane="1136417951_0" startPos="19.82" endPos="34.82" friendlyPos="1"/>
    <busStop id="10.TA.92-705-C-j24-1.6.R.1" name="Forcola di Livigno, dogana Ita" lane="470932002#1_0" startPos="2.53" endPos="17.53" friendlyPos="1"/>
    <busStop id="10.TA.92-705-C-j24-1.6.R.2" name="La Motta, Dogana" lane="230829691_0" startPos="0.00" endPos="2.13" friendlyPos="1"/>
    <busStop id="10.TA.96-263-2-j24-1.4.H.0" name="Alvaschein, vischnanca" lane="124981129#0_0" startPos="0.00" endPos="15.00" friendlyPos="1"/>
    <busStop id="10.TA.96-263-2-j24-1.4.H.1" name="Alvaschein, Gipsmühle" lane="124981129#4_0" startPos="592.11" endPos="607.11" friendlyPos="1"/>
    <busStop id="10.TA.96-263-3-j24-1.3.H.4" name="Surava, Pro Quarta" lane="374158117#0_0" startPos="84.72" endPos="99.72" friendlyPos="1"/>
    <busStop id="10.TA.96-263-3-j24-1.3.H.5" name="Alvaneu Dorf, Crappa Naira" lane="-314389278#0_0" startPos="0.00" endPos="15.00" friendlyPos="1"/>
    <busStop id="10.TA.96-266-0-j24-1.18.H.11" name="Schmitten (Albula), Chappali" lane="591650482_0" startPos="25.38" endPos="40.38" friendlyPos="1"/>
    <busStop id="10.TA.96-266-0-j24-1.18.H.12" name="Schmitten (Albula), Dorf" lane="690554953#2_0" startPos="13.63" endPos="28.63" friendlyPos="1"/>
    <busStop id="10.TA.96-266-0-j24-1.18.H.13" name="Schmitten (Albula), Innerdorf" lane="-146590566_0" startPos="0.00" endPos="15.00" friendlyPos="1"/>
    <busStop id="10.TA.96-266-0-j24-1.18.H.7" name="Brienz/Brinzauls GR, Dorf" lane="591634920_0" startPos="0.00" endPos="3.69" friendlyPos="1"/>
    <busStop id="10.TA.96-266-0-j24-1.18.H.8" name="Brienz/Brinzauls GR, Belfort" lane="30153053#1_0" startPos="0.00" endPos="15.00" friendlyPos="1"/>
    <busStop id="10.TA.96-266-0-j24-1.18.H.9" name="Alvaneu Dorf, Crappa Naira" lane="30153053#4_0" startPos="416.48" endPos="431.48" friendlyPos="1"/>
    <busStop id="10.TA.96-282-4-j24-1.6.R.0" name="Mutten, Oberdorf" lane="-806126477#0_0" startPos="112.40" endPos="127.40" friendlyPos="1"/>
    <busStop id="10.TA.96-282-4-j24-1.6.R.2" name="Mutten, Unterdorf" lane="-806126476#0_0" startPos="147.99" endPos="162.99" friendlyPos="1"/>
    <busStop id="10.TA.96-282-4-j24-1.6.R.3" name="Vaz/Obervaz, Solis" lane="-967072415#1_0" startPos="21.21" endPos="36.21" friendlyPos="1"/>
    <busStop id="10.TA.96-282-4-j24-1.6.R.4" name="Alvaschein, Solisbrücke" lane="-47497927_0" startPos="338.70" endPos="353.70" friendlyPos="1"/>
    <busStop id="10.TA.96-292-6-j24-1.2.R.0" name="Alp Camp" lane="506786371#0_0" startPos="0.00" endPos="15.00" friendlyPos="1"/>
    <busStop id="10.TA.96-292-6-j24-1.2.R.1" name="Lungacqua" lane="506786371#0_0" startPos="629.09" endPos="642.09" friendlyPos="1"/>
    <busStop id="100.TA.92-20-E-j24-1.2.R.1" name="Surlej, Cristins" lane="25418590#1_0" startPos="0.00" endPos="4.00" friendlyPos="1"/>
    <busStop id="100.TA.92-20-E-j24-1.2.R.3" name="Surlej, Islas" lane="-187633169#3_0" startPos="0.00" endPos="15.00" friendlyPos="1"/>
    <busStop id="1003.TA.92-9-H-j24-1.10.H.3" name="St. Moritz Bad, Reithalle" lane="-89726026#3_0" startPos="0.00" endPos="15.00" friendlyPos="1"/>
    <busStop id="1003.TA.92-9-H-j24-1.10.H.4" name="St. Moritz Bad, Post" lane="-170952322#1_0" startPos="18.59" endPos="33.59" friendlyPos="1"/>
    <busStop id="1003.TA.92-9-H-j24-1.10.H.8" name="St. Moritz Bad, Giand'Alva" lane="96461180#5_0" startPos="9.08" endPos="24.08" friendlyPos="1"/>
    <busStop id="1003.TA.92-9-H-j24-1.10.H.9" name="St. Moritz Bad, Youth Hostel" lane="96461180#5_0" startPos="222.96" endPos="237.96" friendlyPos="1"/>
    <busStop id="1004.TA.92-2-L-j24-1.15.H.0" name="Pontresina, Bahnhof" lane="-61427874#2_0" startPos="0.00" endPos="14.60" friendlyPos="1"/>
    <busStop id="1004.TA.92-2-L-j24-1.15.H.12" name="St. Moritz, Segantini Museum" lane="1115020158_0" startPos="65.83" endPos="80.83" friendlyPos="1"/>
    <busStop id="1004.TA.92-2-L-j24-1.15.H.13" name="St. Moritz, Somplaz" lane="25303488#4_0" startPos="30.55" endPos="45.55" friendlyPos="1"/>
    <busStop id="1061.TA.92-10-J-j24-1.18.R.10" name="Bever, Bahnhof" lane="819578576#2_0" startPos="20.98" endPos="35.98" friendlyPos="1"/>
    <busStop id="1061.TA.92-10-J-j24-1.18.R.11" name="Bever, Dorfzentrum" lane="924120656#0_0" startPos="0.00" endPos="15.00" friendlyPos="1"/>
    <busStop id="1061.TA.92-10-J-j24-1.18.R.12" name="La Punt, Krone" lane="-25879170_0" startPos="0.00" endPos="15.00" friendlyPos="1"/>
    <busStop id="1061.TA.92-10-J-j24-1.18.R.15" name="Madulain, vih" lane="209542564#3_0" startPos="8.36" endPos="23.36" friendlyPos="1"/>
    <busStop id="1061.TA.92-10-J-j24-1.18.R.16" name="Zuoz, Chaunt da Crusch" lane="300918337#2_0" startPos="8.61" endPos="23.61" friendlyPos="1"/>
    <busStop id="1061.TA.92-10-J-j24-1.18.R.17" name="Zuoz, staziun" lane="54430667#5_0" startPos="17.54" endPos="32.54" friendlyPos="1"/>
    <busStop id="1061.TA.92-10-J-j24-1.18.R.18" name="Zuoz, Aguêl" lane="1070048512_0" startPos="0.00" endPos="15.00" friendlyPos="1"/>
    <busStop id="1061.TA.92-10-J-j24-1.18.R.19" name="S-chanf, Somvih" lane="28985863_0" startPos="4.95" endPos="19.95" friendlyPos="1"/>
    <busStop id="1061.TA.92-10-J-j24-1.18.R.20" name="S-chanf, Chesa cumünela" lane="1070048517#0_0" startPos="0.00" endPos="6.93" friendlyPos="1"/>
    <busStop id="1061.TA.92-10-J-j24-1.18.R.8" name="Samedan, Quadratscha" lane="26166299#2_0" startPos="4.93" endPos="19.93" friendlyPos="1"/>
    <busStop id="1061.TA.92-10-J-j24-1.18.R.9" name="Samedan, Spital" lane="268026212#0_0" startPos="16.36" endPos="31.36" friendlyPos="1"/>
    <busStop id="11.TA.96-301-2-j24-1.3.H.4" name="Cinuos-chel, Suot il Chaunt" lane="894940511#0_0" startPos="0.00" endPos="15.00" friendlyPos="1"/>
    <busStop id="1156.TA.92-10-J-j24-1.20.R.21" name="S-chanf, Pradels" lane="903746546#1_0" startPos="14.42" endPos="29.42" friendlyPos="1"/>
    <busStop id="1156.TA.92-10-J-j24-1.20.R.22" name="Chapella, La Resgia" lane="26165777_0" startPos="27.72" endPos="42.72" friendlyPos="1"/>
    <busStop id="1156.TA.92-10-J-j24-1.20.R.23" name="Cinuos-chel-Brail, staziun" lane="894928280_0" startPos="4.72" endPos="19.72" friendlyPos="1"/>
    <busStop id="1193.TA.92-10-J-j24-1.22.R.0" name="Maloja, Posta" lane="-977972910_0" startPos="17.36" endPos="32.36" friendlyPos="1"/>
    <busStop id="1193.TA.92-10-J-j24-1.22.R.1" name="Maloja, Capolago" lane="-315159496#0_0" startPos="0.00" endPos="4.19" friendlyPos="1"/>
    <busStop id="1193.TA.92-10-J-j24-1.22.R.13" name="Champfèr, Guardalej" lane="1068735330#1_0" startPos="0.00" endPos="14.08" friendlyPos="1"/>
    <busStop id="1193.TA.92-10-J-j24-1.22.R.2" name="Plaun da Lej" lane="-1086010096_0" startPos="0.00" endPos="15.00" friendlyPos="1"/>
    <busStop id="1193.TA.92-10-J-j24-1.22.R.22" name="St. Moritz, Schulhausplatz" lane="894576901#0_0" startPos="19.10" endPos="34.10" friendlyPos="1"/>
    <busStop id="1193.TA.92-10-J-j24-1.22.R.23" name="St. Moritz, Kulm" lane="268146940#6_0" startPos="0.27" endPos="15.27" friendlyPos="1"/>
    <busStop id="1193.TA.92-10-J-j24-1.22.R.24" name="St. Moritz, Bären" lane="1161282679#6_0" startPos="6.05" endPos="21.05" friendlyPos="1"/>
    <busStop id="1193.TA.92-10-J-j24-1.22.R.25" name="Celerina, Cresta Kulm" lane="30663911#5_0" startPos="56.85" endPos="71.85" friendlyPos="1"/>
    <busStop id="1193.TA.92-10-J-j24-1.22.R.26" name="Celerina, Cresta Palace" lane="1034267682#3_0" startPos="8.87" endPos="23.87" friendlyPos="1"/>
    <busStop id="1193.TA.92-10-J-j24-1.22.R.27" name="Celerina, Trais Fluors" lane="-52823909#0_0" startPos="0.00" endPos="15.00" friendlyPos="1"/>
    <busStop id="1193.TA.92-10-J-j24-1.22.R.28" name="Samedan, Ariefa" lane="894833023#2_0" startPos="0.00" endPos="0.20" friendlyPos="1"/>
    <busStop id="1193.TA.92-10-J-j24-1.22.R.29" name="Samedan, Sper l'En" lane="173044381#1_0" startPos="40.68" endPos="65.68" friendlyPos="1"/>
    <busStop id="1193.TA.92-10-J-j24-1.22.R.3" name="Sils/Segl Baselgia,San Lurench" lane="56240189#0_0" startPos="19.99" endPos="34.99" friendlyPos="1"/>
    <busStop id="1193.TA.92-10-J-j24-1.22.R.4" name="Sils/Segl Baselgia, Biblioteca" lane="56240189#7_0" startPos="0.00" endPos="15.00" friendlyPos="1"/>
    <busStop id="1193.TA.92-10-J-j24-1.22.R.5" name="Sils/Segl Maria, Posta" lane="209755663#3_0" startPos="0.10" endPos="5.00" friendlyPos="1"/>
    <busStop id="1193.TA.92-10-J-j24-1.22.R.6" name="Sils/Segl Maria, Seglias" lane="1472605488#2_0" startPos="10.93" endPos="25.93" friendlyPos="1"/>
    <busStop id="1193.TA.92-10-J-j24-1.22.R.7" name="Silvaplana, Camping" lane="76091869#1_0" startPos="5.19" endPos="20.19" friendlyPos="1"/>
    <busStop id="12.TA.92-7-H-j24-1.5.H.0" name="S-chanf, Parc Naziunal" lane="-28986224#1_0" startPos="0.00" endPos="15.00" friendlyPos="1"/>
    <busStop id="12.TA.92-7-H-j24-1.5.H.1" name="S-chanf, Pradels" lane="-903746546#1_0" startPos="0.00" endPos="15.00" friendlyPos="1"/>
    <busStop id="12.TA.96-282-4-j24-1.7.R.0" name="Obermutten, Dorf" lane="-83056282#1_0" startPos="0.00" endPos="15.00" friendlyPos="1"/>
    <busStop id="12.TA.96-282-4-j24-1.7.R.1" name="Mutten, Stafel" lane="-537206171#4_0" startPos="68.14" endPos="83.14" friendlyPos="1"/>
    <busStop id="12.TA.96-282-4-j24-1.7.R.2" name="Mutten, Oberdorf" lane="-537206180#0_0" startPos="0.00" endPos="15.00" friendlyPos="1"/>
    <busStop id="1200.TA.92-9-H-j24-1.12.R.0" name="St. Moritz Bad, Youth Hostel" lane="-96461180#5_0" startPos="0.00" endPos="15.00" friendlyPos="1"/>
    <busStop id="1323.TA.92-1-N-j24-1.88.H.0" name="Samedan, Bahnhof" lane="173044383_0" startPos="1.39" endPos="16.39" friendlyPos="1"/>
    <busStop id="1323.TA.92-1-N-j24-1.88.H.1" name="Samedan, Post" lane="914212716#1_0" startPos="0.00" endPos="9.44" friendlyPos="1"/>
    <busStop id="1323.TA.92-1-N-j24-1.88.H.14" name="St. Moritz, Bahnhof" lane="519913263#1_0" startPos="5.00" endPos="25.00" friendlyPos="1"/>
    <busStop id="1323.TA.92-1-N-j24-1.88.H.15" name="St. Moritz, Klinik Gut" lane="819942944#3_0" startPos="0.00" endPos="15.00" friendlyPos="1"/>
    <busStop id="1323.TA.92-1-N-j24-1.88.H.17" name="St. Moritz, Caspar Badrutt" lane="-152517443#1_0" startPos="75.95" endPos="90.95" friendlyPos="1"/>
    <busStop id="1323.TA.92-1-N-j24-1.88.H.18" name="St. Moritz Bad, Via Aruons" lane="-152517715#3_0" startPos="181.69" endPos="196.69" friendlyPos="1"/>
    <busStop id="1323.TA.92-1-N-j24-1.88.H.19" name="St. Moritz Bad, Via Salet" lane="-25303487#4_0" startPos="10.28" endPos="25.28" friendlyPos="1"/>
    <busStop id="1323.TA.92-1-N-j24-1.88.H.20" name="St. Moritz Bad, Kath. Kirche" lane="30957915_0" startPos="57.33" endPos="72.33" friendlyPos="1"/>
    <busStop id="1323.TA.92-1-N-j24-1.88.H.21" name="St. Moritz Bad, Sonne" lane="-30050433#2_0" startPos="31.19" endPos="46.19" friendlyPos="1"/>
    <busStop id="1323.TA.92-1-N-j24-1.88.H.22" name="St. Moritz Bad, Hallenbad" lane="170940321#0_0" startPos="36.36" endPos="51.36" friendlyPos="1"/>
    <busStop id="1323.TA.92-1-N-j24-1.88.H.23" name="St. Moritz Bad, Via San Gian" lane="-170952324#1_0" startPos="11.01" endPos="26.01" friendlyPos="1"/>
    <busStop id="1323.TA.92-1-N-j24-1.88.H.25" name="St. Moritz Bad, Campingplatz" lane="-30957907_0" startPos="58.53" endPos="73.53" friendlyPos="1"/>
    <busStop id="1323.TA.92-1-N-j24-1.88.H.26" name="Silvaplana, Rundella Curtins" lane="1086005529_0" startPos="94.72" endPos="109.72" friendlyPos="1"/>
    <busStop id="1323.TA.92-1-N-j24-1.88.H.27" name="Surlej, Punt" lane="25418588#1_0" startPos="0.00" endPos="15.00" friendlyPos="1"/>
    <busStop id="1323.TA.92-1-N-j24-1.88.H.28" name="Surlej, Foppas" lane="30957916#1_0" startPos="22.25" endPos="37.25" friendlyPos="1"/>
    <busStop id="1323.TA.92-1-N-j24-1.88.H.3" name="Samedan, Central" lane="914073309#0_0" startPos="0.00" endPos="12.66" friendlyPos="1"/>
    <busStop id="1323.TA.92-1-N-j24-1.88.H.4" name="Samedan, Golf" lane="25418890#1_0" startPos="0.00" endPos="11.36" friendlyPos="1"/>
    <busStop id="1323.TA.92-1-N-j24-1.88.H.6" name="Punt Muragl, Talstation" lane="19724333#1_0" startPos="10.51" endPos="25.51" friendlyPos="1"/>
    <busStop id="1333.TA.92-2-L-j24-1.22.R.4" name="St. Moritz, Somplaz" lane="-25303488#4_0" startPos="177.05" endPos="192.05" friendlyPos="1"/>
    <busStop id="1333.TA.92-2-L-j24-1.22.R.5" name="St. Moritz, Segantini Museum" lane="-1115020158_0" startPos="8.52" endPos="23.52" friendlyPos="1"/>
    <busStop id="1373.TA.92-2-L-j24-1.24.R.0" name="Sils/Segl Baselgia,San Lurench" lane="56240189#4_0" startPos="16.24" endPos="31.24" friendlyPos="1"/>
    <busStop id="14.TA.96-263-2-j24-1.5.H.4" name="Mon, avant porta" lane="170975839#1_0" startPos="6.39" endPos="21.39" friendlyPos="1"/>
    <busStop id="14.TA.96-290-0-j24-1.25.H.10" name="Stampa, Val d'Arca" lane="-502426852#0_0" startPos="65.99" endPos="80.99" friendlyPos="1"/>
    <busStop id="14.TA.96-290-0-j24-1.25.H.11" name="Promontogno, Posta" lane="120829159_0" startPos="20.00" endPos="30.00" friendlyPos="1"/>
    <busStop id="14.TA.96-290-0-j24-1.25.H.12" name="Castasegna, Dogana nuova" lane="391661586_0" startPos="54.82" endPos="69.82" friendlyPos="1"/>
    <busStop id="14.TA.96-290-0-j24-1.25.H.7" name="Casaccia, Villaggio" lane="-633986854#1_0" startPos="0.00" endPos="14.52" friendlyPos="1"/>
    <busStop id="14.TA.96-290-0-j24-1.25.H.8" name="Pranzaira, Albigna" lane="-1443580513#2_0" startPos="6.30" endPos="21.30" friendlyPos="1"/>
    <busStop id="14.TA.96-290-0-j24-1.25.H.9" name="Vicosoprano, Helvetia" lane="-502426855#1_0" startPos="42.84" endPos="57.84" friendlyPos="1"/>
    <busStop id="14.TA.96-292-0-j24-1.8.R.12" name="Li Curt, S. Antonio" lane="-802170168#7_0" startPos="104.90" endPos="119.90" friendlyPos="1"/>
    <busStop id="14.TA.96-292-0-j24-1.8.R.4" name="S. Carlo GR, Percosta" lane="169639668#0_0" startPos="0.00" endPos="12.76" friendlyPos="1"/>
    <busStop id="14.TA.96-292-0-j24-1.8.R.5" name="S. Carlo GR, Permunt" lane="732209057#1_0" startPos="58.45" endPos="73.45" friendlyPos="1"/>
    <busStop id="14.TA.96-292-0-j24-1.8.R.6" name="S. Carlo GR, Angeli Custodi" lane="732209054#0_0" startPos="247.45" endPos="262.45" friendlyPos="1"/>
    <busStop id="14.TA.96-292-0-j24-1.8.R.7" name="S. Carlo GR, Raviscé" lane="169639667_0" startPos="0.00" endPos="15.00" friendlyPos="1"/>
    <busStop id="1401.TA.92-2-L-j24-1.27.R.14" name="Pontresina, Rondo" lane="61427866#1_0" startPos="2.20" endPos="17.20" friendlyPos="1"/>
    <busStop id="1406.TA.92-1-N-j24-1.89.H.29" name="Surlej, Corvatschbahn" lane="1050853710_0" startPos="18.91" endPos="33.91" friendlyPos="1"/>
    <busStop id="15.TA.96-262-1-j24-1.35.H.0" name="Parsonz, vischnanca" lane="690955706_0" startPos="118.57" endPos="133.57" friendlyPos="1"/>
    <busStop id="15.TA.96-262-1-j24-1.35.H.1" name="Riom, vischnanca" lane="200343642_0" startPos="0.00" endPos="1.79" friendlyPos="1"/>
    <busStop id="15.TA.96-262-1-j24-1.35.H.2" name="Riom, Casti" lane="690955704#1_0" startPos="0.36" endPos="15.36" friendlyPos="1"/>
    <busStop id="15.TA.96-262-1-j24-1.35.H.3" name="Salouf, vischnanca" lane="853527378_0" startPos="0.00" endPos="15.00" friendlyPos="1"/>
    <busStop id="15.TA.96-262-1-j24-1.35.H.6" name="Riom, spartaveias" lane="35833439#0_0" startPos="0.00" endPos="15.00" friendlyPos="1"/>
    <busStop id="15.TA.96-262-1-j24-1.35.H.7" name="Cunter, Mulegn" lane="-854030010_0" startPos="0.00" endPos="0.20" friendlyPos="1"/>
    <busStop id="15.TA.96-283-6-j24-1.2.R.0" name="Avers, Juf" lane="-655899989_0" startPos="0.00" endPos="15.00" friendlyPos="1"/>
    <busStop id="15.TA.96-283-6-j24-1.2.R.1" name="Avers, Podestats Haus" lane="-67386045#5_0" startPos="465.03" endPos="480.03" friendlyPos="1"/>
    <busStop id="15.TA.96-283-6-j24-1.2.R.10" name="Avers, Abzw. Valle di Lei" lane="-38694686#1_0" startPos="0.00" endPos="15.00" friendlyPos="1"/>
    <busStop id="15.TA.96-283-6-j24-1.2.R.11" name="Ferrera, Abzw. Val digl Uors" lane="-1089887708#0_0" startPos="0.00" endPos="15.00" friendlyPos="1"/>
    <busStop id="15.TA.96-283-6-j24-1.2.R.2" name="Avers, Rufana" lane="-67386045#2_0" startPos="0.00" endPos="15.00" friendlyPos="1"/>
    <busStop id="15.TA.96-283-6-j24-1.2.R.3" name="Avers, Juppa" lane="-304719789#1_0" startPos="0.00" endPos="25.00" friendlyPos="1"/>
    <busStop id="15.TA.96-283-6-j24-1.2.R.4" name="Avers, Am Bach" lane="-320560205#4_0" startPos="0.00" endPos="15.00" friendlyPos="1"/>
    <busStop id="15.TA.96-283-6-j24-1.2.R.5" name="Avers, Pürt" lane="-320560205#0_0" startPos="159.64" endPos="174.64" friendlyPos="1"/>
    <busStop id="15.TA.96-283-6-j24-1.2.R.6" name="Avers, Cresta" lane="-961236599#1_0" startPos="35.95" endPos="50.95" friendlyPos="1"/>
    <busStop id="15.TA.96-283-6-j24-1.2.R.7" name="Avers, Lezibrücke" lane="-916850589#0_0" startPos="12.28" endPos="27.28" friendlyPos="1"/>
    <busStop id="15.TA.96-283-6-j24-1.2.R.8" name="Avers, Cröt" lane="-38694690#3_0" startPos="0.00" endPos="15.00" friendlyPos="1"/>
    <busStop id="15.TA.96-283-6-j24-1.2.R.9" name="Avers, Campsut" lane="-38694690#1_0" startPos="49.82" endPos="64.82" friendlyPos="1"/>
    <busStop id="153.TA.96-260-1-j24-1.8.H.1" name="Lantsch/Lenz, Biathlon Arena" lane="-690751814#1_0" startPos="7.34" endPos="20.34" friendlyPos="1"/>
    <busStop id="153.TA.96-260-1-j24-1.8.H.2" name="Lantsch/Lenz, Barbatschauns" lane="-897592624#7_0" startPos="35.24" endPos="50.24" friendlyPos="1"/>
    <busStop id="153.TA.96-260-1-j24-1.8.H.3" name="Lantsch/Lenz, Vischnanca" lane="124064405_0" startPos="0.00" endPos="11.21" friendlyPos="1"/>
    <busStop id="153.TA.96-260-1-j24-1.8.H.4" name="Lantsch/Lenz, Sudem Vischnanca" lane="-29377506#0_0" startPos="34.92" endPos="49.92" friendlyPos="1"/>
    <busStop id="155.TA.96-260-1-j24-1.9.H.10" name="Cunter, Burvagn" lane="-246065192#0_0" startPos="218.72" endPos="233.72" friendlyPos="1"/>
    <busStop id="155.TA.96-260-1-j24-1.9.H.11" name="Cunter, Dafora" lane="-690955701#1_0" startPos="3.95" endPos="18.95" friendlyPos="1"/>
    <busStop id="155.TA.96-260-1-j24-1.9.H.12" name="Cunter, vischnanca" lane="-854030017_0" startPos="100.01" endPos="115.01" friendlyPos="1"/>
    <busStop id="155.TA.96-260-1-j24-1.9.H.13" name="Savognin, Cresta" lane="-200933442#3_0" startPos="22.27" endPos="37.27" friendlyPos="1"/>
    <busStop id="155.TA.96-260-1-j24-1.9.H.14" name="Savognin, posta" lane="-897592622#0_0" startPos="4.33" endPos="19.33" friendlyPos="1"/>
    <busStop id="155.TA.96-260-1-j24-1.9.H.15" name="Tinizong, Cadras" lane="-1219873853_0" startPos="74.59" endPos="89.59" friendlyPos="1"/>
    <busStop id="155.TA.96-260-1-j24-1.9.H.16" name="Tinizong, Tga Communala" lane="-851211805#0_0" startPos="13.84" endPos="28.84" friendlyPos="1"/>
    <busStop id="155.TA.96-260-1-j24-1.9.H.17" name="Tinizong, Curtinatsch" lane="-1264442841#1_0" startPos="59.32" endPos="74.32" friendlyPos="1"/>
    <busStop id="155.TA.96-260-1-j24-1.9.H.18" name="Tinizong, Vardaval" lane="-1411974373#0_0" startPos="114.77" endPos="129.77" friendlyPos="1"/>
    <busStop id="155.TA.96-260-1-j24-1.9.H.19" name="Rona, vischnanca" lane="-216377524#1_0" startPos="0.00" endPos="4.97" friendlyPos="1"/>
    <busStop id="155.TA.96-260-1-j24-1.9.H.20" name="Mulegns, vischnanca" lane="-1435042405_0" startPos="0.00" endPos="7.42" friendlyPos="1"/>
    <busStop id="155.TA.96-260-1-j24-1.9.H.22" name="Marmorera, Scalotta" lane="-170975837#3_0" startPos="130.17" endPos="145.17" friendlyPos="1"/>
    <busStop id="155.TA.96-260-1-j24-1.9.H.23" name="Marmorera, rampar/Staudamm" lane="-170975836#0_0" startPos="16.25" endPos="31.25" friendlyPos="1"/>
    <busStop id="155.TA.96-260-1-j24-1.9.H.24" name="Marmorera, vischnanca" lane="-915957807#1_0" startPos="2.48" endPos="17.48" friendlyPos="1"/>
    <busStop id="155.TA.96-260-1-j24-1.9.H.25" name="Bivio, Stalvedro" lane="-230145665#0_0" startPos="0.00" endPos="15.00" friendlyPos="1"/>