<?xml version="1.0" encoding="UTF-8"?>

<!-- generated by Eclipse SUMO gtfs2pt.py v1_26_0+0000-fa7df22d7f1
<configuration>
    <gtfs value="D:\Dokumente\sumo\maloja\03_bus\02_August\GTFS_FP2024_2024-08-22.zip"/>
    <date value="20240822"/>
    <modes value="bus"/>
    <network value="D:\Dokumente\sumo\maloja\osm_modded.net.xml"/>
    <stops value="D:\Dokumente\sumo\maloja\03_bus\osm_stops.add.xml"/>
    <repair value="True"/>
</configuration>
-->

<routes xmlns:xsi="http://www.w3.org/2001/XMLSchema-instance" xsi:noNamespaceSchemaLocation="http://sumo.dlr.de/xsd/routes_file.xsd">
    <route id="1323.TA.92-1-N-j24-1.88.H" edges="173044383 894506053#1 230638454#0 230638454#1 230638449#0 230638449#1 819412091#1 819412091#2 914073308#0 914073308#1 914212716#0 914212716#1 914212716#2 819412090#0 819412090#1 819412090#2 213910554#0 213910554#1 213910554#2 -230638433#3 -230638433#2 -230638433#1 -230638433#0 914073309#0 914073309#1 914073309#2 914433251 30343778#1 182559620#4 182559620#1 -25418892#1 -25418892#0 -1070048495 -1070048494 -25418890#1 25418890#1 -25418890#1 -25418890#0 25418888#0 25418888#1 25418889#0 25418889#1 31178572#1 30984022#1 30984022#2 -27257048#1 -27257048#0 -471090480 -27257046#1 -27257046#0 -19724333#1 -19724333#0 -471089169 -173039318 -471086538 387218854 1422272785 1435928294#1 1435928294#2 1435928294#3 1435928294#4 1435928294#5 1435928294#6 19736079#0 19736079#1 19736079#2 19736079#3 19736079#4 19736079#5 19736079#6 19736079#7 19736079#8 1435928297#0 1435928297#1 1115818841#0 1115818841#1 1115818841#2 1115818841#3 1115818841#4 1115818841#5 1115818841#7 1115818841#8 1115818841#9 1115818841#10 61427866#0 61427866#1 61427866#2 61427866#3 61427866#4 23843003#0 23843003#1 23843003#3 23843003#4 23843003#5 23843003#7 23843003#8 23843004#1 23843004#2 61427886#0 61427886#1 61427886#2 61427886#3 61427886#5 61427886#6 505119661 25418853 851906186 966438286 19724393 26168124 341379201 61427881 61427874#1 61427874#2 61427874#3 -61427874#3 -61427874#2 -61427874#1 -61427874#0 -341379201 -26168127 -19724393 966438288 851906186 471081264 25418854 51838355#1 471086539 31180358 471086538 173039318 471089169 19724333#0 19724333#1 27257046#0 27257046#1 27257046#2 27257048#0 27257048#1 30984022#3 30984022#1 30215453 30664474 30664475#1 30664475#2 173039316 1189801657 929525144 1189801658 1189801659#0 1189801659#1 1189801662 888359128#5 888359128#1 888359128#2 268776830#0 268776830#1 1189801663 916015460#0 916015460#1 89724876#3 72562096#0 916468197 904728442 897592613 120840710 903531446 -903531446 903531446 120840712#0 -47578286 1068735342#0 1068735342#1 819942945#0 819942945#2 1068735337 152520535 819942944#2 819942944#3 819942944#4 819945211 1467922383 819945210#0 819945210#1 894576902 25303490 -152517443#2 -152517443#1 -152517443#0 -152517715#4 -152517715#3 -152517715#1 -152517715#0 -25303487#6 -25303487#5 -25303487#4 -25303487#3 -25303487#2 -25303487#1 -25303487#0 14014144#3 14014144#4 14014144#5 25303411#0 25303411#1 30957915 120840708 819945220#0 819945220#1 819945220#2 -30050433#3 -30050433#2 -30050433#1 -30050433#0 51814855 170940321#0 170940321#1 -170952324#5 -170952324#3 -170952324#2 -170952324#1 -170952324#0 -19724261 769993301#0 769993301#1 769993301#2 769993301#3 754285231 543256262 543256263#2 543256263#3 -501346486 -89727905#1 -89727905#0 -1219872249#1 -1219872249#0 -1219872250 -30957907 -1219872251 -894841758 -209049898 -209049897 -72562012 -182550686#1 -182550686#0 182098926 209788024#0 209788024#1 182095936#0 182095936#1 1136239035#0 1136239035#1 -209788015 -1219863759 -1219863760#1 -72561993#1 -72561993#0 1086005529 14014136#0 14014136#1 14014136#2 1136237773 1136237772 1086005532#0 1086005532#1 19738795 1050853679 19738790#0 19738790#1 25418588#1 1050853680 187633169#0 187633169#1 187633169#2 187633169#3 187633169#4 187633173#0 187633173#1 -96461188 30957916#1">
        <stop busStop="1323.TA.92-1-N-j24-1.88.H.0" duration="10" until="0"/> <!-- Samedan, Bahnhof -->
        <stop busStop="1323.TA.92-1-N-j24-1.88.H.1" duration="10" until="120"/> <!-- Samedan, Post -->
        <stop busStop="1323.TA.92-1-N-j24-1.88.H.1" duration="10" until="120"/> <!-- Samedan, Chesa Planta -->
        <stop busStop="1323.TA.92-1-N-j24-1.88.H.3" duration="10" until="180"/> <!-- Samedan, Central -->
        <stop busStop="1323.TA.92-1-N-j24-1.88.H.4" duration="10" until="240"/> <!-- Samedan, Golf -->
        <stop busStop="1323.TA.92-1-N-j24-1.88.H.4" duration="10" until="300"/> <!-- Samedan, Porta Samedan -->
        <stop busStop="1323.TA.92-1-N-j24-1.88.H.6" duration="10" until="600"/> <!-- Punt Muragl, Talstation -->
        <stop busStop="1323.TA.92-1-N-j24-1.88.H.6" duration="10" until="1680"/> <!-- Punt Muragl, Talstation -->
        <stop busStop="1323.TA.92-1-N-j24-1.88.H.14" duration="10" until="2100"/> <!-- St. Moritz, Bahnhof -->
        <stop busStop="1323.TA.92-1-N-j24-1.88.H.15" duration="10" until="2160"/> <!-- St. Moritz, Klinik Gut -->
        <stop busStop="1323.TA.92-1-N-j24-1.88.H.15" duration="10" until="2340"/> <!-- St. Moritz, Schulhausplatz -->
        <stop busStop="1323.TA.92-1-N-j24-1.88.H.17" duration="10" until="2340"/> <!-- St. Moritz, Caspar Badrutt -->
        <stop busStop="1323.TA.92-1-N-j24-1.88.H.18" duration="10" until="2400"/> <!-- St. Moritz Bad, Via Aruons -->
        <stop busStop="1323.TA.92-1-N-j24-1.88.H.19" duration="10" until="2460"/> <!-- St. Moritz Bad, Via Salet -->
        <stop busStop="1323.TA.92-1-N-j24-1.88.H.20" duration="10" until="2520"/> <!-- St. Moritz Bad, Kath. Kirche -->
        <stop busStop="1323.TA.92-1-N-j24-1.88.H.21" duration="10" until="2580"/> <!-- St. Moritz Bad, Sonne -->
        <stop busStop="1323.TA.92-1-N-j24-1.88.H.22" duration="10" until="2640"/> <!-- St. Moritz Bad, Hallenbad -->
        <stop busStop="1323.TA.92-1-N-j24-1.88.H.23" duration="10" until="2760"/> <!-- St. Moritz Bad, Via San Gian -->
        <stop busStop="1323.TA.92-1-N-j24-1.88.H.23" duration="10" until="2760"/> <!-- St. Moritz Bad, Signalbahn -->
        <stop busStop="1323.TA.92-1-N-j24-1.88.H.25" duration="10" until="2820"/> <!-- St. Moritz Bad, Campingplatz -->
        <stop busStop="1323.TA.92-1-N-j24-1.88.H.26" duration="10" until="3120"/> <!-- Silvaplana, Rundella Curtins -->
        <stop busStop="1323.TA.92-1-N-j24-1.88.H.27" duration="10" until="3180"/> <!-- Surlej, Punt -->
        <stop busStop="1323.TA.92-1-N-j24-1.88.H.28" duration="10" until="3240"/> <!-- Surlej, Foppas -->
    </route>
    <route id="1406.TA.92-1-N-j24-1.89.H" edges="173044383 894506053#1 230638454#0 230638454#1 230638449#0 230638449#1 819412091#1 819412091#2 914073308#0 914073308#1 914212716#0 914212716#1 914212716#2 819412090#0 819412090#1 819412090#2 213910554#0 213910554#1 213910554#2 -230638433#3 -230638433#2 -230638433#1 -230638433#0 914073309#0 914073309#1 914073309#2 914433251 30343778#1 182559620#4 182559620#1 -25418892#1 -25418892#0 -1070048495 -1070048494 -25418890#1 25418890#1 -25418890#1 -25418890#0 25418888#0 25418888#1 25418889#0 25418889#1 31178572#1 30984022#1 30984022#2 -27257048#1 -27257048#0 -471090480 -27257046#1 -27257046#0 -19724333#1 -19724333#0 -471089169 -173039318 -471086538 387218854 1422272785 1435928294#1 1435928294#2 1435928294#3 1435928294#4 1435928294#5 1435928294#6 19736079#0 19736079#1 19736079#2 19736079#3 19736079#4 19736079#5 19736079#6 19736079#7 19736079#8 1435928297#0 1435928297#1 1115818841#0 1115818841#1 1115818841#2 1115818841#3 1115818841#4 1115818841#5 1115818841#7 1115818841#8 1115818841#9 1115818841#10 61427866#0 61427866#1 61427866#2 61427866#3 61427866#4 23843003#0 23843003#1 23843003#3 23843003#4 23843003#5 23843003#7 23843003#8 23843004#1 23843004#2 61427886#0 61427886#1 61427886#2 61427886#3 61427886#5 61427886#6 505119661 25418853 851906186 966438286 19724393 26168124 341379201 61427881 61427874#1 61427874#2 61427874#3 -61427874#3 -61427874#2 -61427874#1 -61427874#0 -341379201 -26168127 -19724393 966438288 851906186 471081264 25418854 51838355#1 471086539 31180358 471086538 173039318 471089169 19724333#0 19724333#1 27257046#0 27257046#1 27257046#2 27257048#0 27257048#1 30984022#3 30984022#1 30215453 30664474 30664475#1 30664475#2 173039316 1189801657 929525144 1189801658 1189801659#0 1189801659#1 1189801662 888359128#5 888359128#1 888359128#2 268776830#0 268776830#1 1189801663 916015460#0 916015460#1 89724876#3 72562096#0 916468197 904728442 897592613 120840710 903531446 -903531446 903531446 120840712#0 -47578286 1068735342#0 1068735342#1 819942945#0 819942945#2 1068735337 152520535 819942944#2 819942944#3 819942944#4 819945211 1467922383 819945210#0 819945210#1 894576902 25303490 -152517443#2 -152517443#1 -152517443#0 -152517715#4 -152517715#3 -152517715#1 -152517715#0 -25303487#6 -25303487#5 -25303487#4 -25303487#3 -25303487#2 -25303487#1 -25303487#0 14014144#3 14014144#4 14014144#5 25303411#0 25303411#1 30957915 120840708 819945220#0 819945220#1 819945220#2 -30050433#3 -30050433#2 -30050433#1 -30050433#0 51814855 170940321#0 170940321#1 -170952324#5 -170952324#3 -170952324#2 -170952324#1 -170952324#0 -19724261 769993301#0 769993301#1 769993301#2 769993301#3 754285231 543256262 543256263#2 543256263#3 -501346486 -89727905#1 -89727905#0 -1219872249#1 -1219872249#0 -1219872250 -30957907 -1219872251 -894841758 -209049898 -209049897 -72562012 -182550686#1 -182550686#0 182098926 209788024#0 209788024#1 182095936#0 182095936#1 1136239035#0 1136239035#1 -209788015 -1219863759 -1219863760#1 -72561993#1 -72561993#0 1086005529 14014136#0 14014136#1 14014136#2 1136237773 1136237772 1086005532#0 1086005532#1 19738795 1050853679 19738790#0 19738790#1 25418588#1 1050853680 187633169#0 187633169#1 187633169#2 187633169#3 187633169#4 187633173#0 187633173#1 -96461188 30957916#1 30957916#2 30957916#3 30957916#4 918403989#0 918403989#1 25418590#0 25418590#1 25418590#2 25418590#4 25418590#5 25418590#6 25418590#7 25418590#8 30957926#2 30957926#3 30957926#4 30957925 1050853710">
        <stop busStop="1323.TA.92-1-N-j24-1.88.H.0" duration="10" until="0"/> <!-- Samedan, Bahnhof -->
        <stop busStop="1323.TA.92-1-N-j24-1.88.H.1" duration="10" until="120"/> <!-- Samedan, Post -->
        <stop busStop="1323.TA.92-1-N-j24-1.88.H.1" duration="10" until="120"/> <!-- Samedan, Chesa Planta -->
        <stop busStop="1323.TA.92-1-N-j24-1.88.H.3" duration="10" until="180"/> <!-- Samedan, Central -->
        <stop busStop="1323.TA.92-1-N-j24-1.88.H.4" duration="10" until="240"/> <!-- Samedan, Golf -->
        <stop busStop="1323.TA.92-1-N-j24-1.88.H.4" duration="10" until="300"/> <!-- Samedan, Porta Samedan -->
        <stop busStop="1323.TA.92-1-N-j24-1.88.H.6" duration="10" until="600"/> <!-- Punt Muragl, Talstation -->
        <stop busStop="1323.TA.92-1-N-j24-1.88.H.6" duration="10" until="1680"/> <!-- Punt Muragl, Talstation -->
        <stop busStop="1323.TA.92-1-N-j24-1.88.H.14" duration="10" until="2100"/> <!-- St. Moritz, Bahnhof -->
        <stop busStop="1323.TA.92-1-N-j24-1.88.H.15" duration="10" until="2160"/> <!-- St. Moritz, Klinik Gut -->
        <stop busStop="1323.TA.92-1-N-j24-1.88.H.15" duration="10" until="2340"/> <!-- St. Moritz, Schulhausplatz -->
        <stop busStop="1323.TA.92-1-N-j24-1.88.H.17" duration="10" until="2340"/> <!-- St. Moritz, Caspar Badrutt -->
        <stop busStop="1323.TA.92-1-N-j24-1.88.H.18" duration="10" until="2400"/> <!-- St. Moritz Bad, Via Aruons -->
        <stop busStop="1323.TA.92-1-N-j24-1.88.H.19" duration="10" until="2460"/> <!-- St. Moritz Bad, Via Salet -->
        <stop busStop="1323.TA.92-1-N-j24-1.88.H.20" duration="10" until="2520"/> <!-- St. Moritz Bad, Kath. Kirche -->
        <stop busStop="1323.TA.92-1-N-j24-1.88.H.21" duration="10" until="2580"/> <!-- St. Moritz Bad, Sonne -->
        <stop busStop="1323.TA.92-1-N-j24-1.88.H.22" duration="10" until="2640"/> <!-- St. Moritz Bad, Hallenbad -->
        <stop busStop="1323.TA.92-1-N-j24-1.88.H.23" duration="10" until="2760"/> <!-- St. Moritz Bad, Via San Gian -->
        <stop busStop="1323.TA.92-1-N-j24-1.88.H.23" duration="10" until="2760"/> <!-- St. Moritz Bad, Signalbahn -->
        <stop busStop="1323.TA.92-1-N-j24-1.88.H.25" duration="10" until="2820"/> <!-- St. Moritz Bad, Campingplatz -->
        <stop busStop="1323.TA.92-1-N-j24-1.88.H.26" duration="10" until="3120"/> <!-- Silvaplana, Rundella Curtins -->
        <stop busStop="1323.TA.92-1-N-j24-1.88.H.27" duration="10" until="3180"/> <!-- Surlej, Punt -->
        <stop busStop="1323.TA.92-1-N-j24-1.88.H.28" duration="10" until="3240"/> <!-- Surlej, Foppas -->
        <stop busStop="1406.TA.92-1-N-j24-1.89.H.29" duration="10" until="3420"/> <!-- Surlej, Corvatschbahn -->
    </route>
    <route id="1674.TA.92-1-N-j24-1.90.R" edges="170952324#1 170952324#2 170952324#3 170952324#5 -170940321#1 -170940321#0 -51814855 30050433#0 30050433#1 30050433#2 30050433#3 -819945220#2 -819945220#1 -819945220#0 -120840708 -30957915 -914487470 -25303411#0 14014144#0 14014144#1 14014144#2 25303487#0 25303487#1 25303487#2 25303487#3 25303487#4 25303487#5 25303487#6 152517715#0 152517715#1 152517715#3 152517715#4 152517443#0 152517443#1 152517443#2 819945209 -1467922383 -819945211 -819942944#4 -819942944#3 -819942944#2 -152520535 -1068735337 -819942945#2 -819942945#0 -1068735342#1 -1068735342#0 47578286 -120840712#0 -903531446">
        <stop busStop="1674.TA.92-1-N-j24-1.90.R.0" duration="10" until="0"/> <!-- St. Moritz Bad, Via San Gian -->
        <stop busStop="1674.TA.92-1-N-j24-1.90.R.1" duration="10" until="60"/> <!-- St. Moritz Bad, Hallenbad -->
        <stop busStop="1674.TA.92-1-N-j24-1.90.R.2" duration="10" until="180"/> <!-- St. Moritz Bad, Sonne -->
        <stop busStop="1674.TA.92-1-N-j24-1.90.R.3" duration="10" until="240"/> <!-- St. Moritz Bad, Kath. Kirche -->
        <stop busStop="1674.TA.92-1-N-j24-1.90.R.4" duration="10" until="300"/> <!-- St. Moritz Bad, Via Salet -->
        <stop busStop="1674.TA.92-1-N-j24-1.90.R.5" duration="10" until="360"/> <!-- St. Moritz Bad, Via Aruons -->
        <stop busStop="1674.TA.92-1-N-j24-1.90.R.6" duration="10" until="540"/> <!-- St. Moritz, Schulhausplatz -->
        <stop busStop="1674.TA.92-1-N-j24-1.90.R.6" duration="10" until="600"/> <!-- St. Moritz, Klinik Gut -->
        <stop busStop="1323.TA.92-1-N-j24-1.88.H.14" duration="10" until="720"/> <!-- St. Moritz, Bahnhof -->
    </route>
    <route id="193.TA.92-1-N-j24-1.77.H" edges="-120840710 120840710 903531446 120840712#0 -47578286 1068735342#0 1068735342#1 819942945#0 819942945#2 1068735337 152520535 819942944#2 819942944#3 819942944#4 819945211 1467922383 819945210#0 819945210#1 894576902 25303490 -152517443#2 -152517443#1 -152517443#0 -152517715#4 -152517715#3 -152517715#1 -152517715#0 -25303487#6 -25303487#5 -25303487#4 -25303487#3 -25303487#2 -25303487#1 -25303487#0 14014144#3 14014144#4 14014144#5 25303411#0 25303411#1 30957915 120840708 819945220#0 819945220#1 819945220#2 -30050433#3 -30050433#2 -30050433#1 -30050433#0 51814855 170940321#0 170940321#1 -170952324#5 -170952324#3 -170952324#2 -170952324#1">
        <stop busStop="193.TA.92-1-N-j24-1.77.H.0" duration="10" until="0"/> <!-- St. Moritz, Bahnhof -->
        <stop busStop="1323.TA.92-1-N-j24-1.88.H.15" duration="10" until="60"/> <!-- St. Moritz, Klinik Gut -->
        <stop busStop="1323.TA.92-1-N-j24-1.88.H.15" duration="10" until="240"/> <!-- St. Moritz, Schulhausplatz -->
        <stop busStop="1323.TA.92-1-N-j24-1.88.H.17" duration="10" until="240"/> <!-- St. Moritz, Caspar Badrutt -->
        <stop busStop="1323.TA.92-1-N-j24-1.88.H.18" duration="10" until="300"/> <!-- St. Moritz Bad, Via Aruons -->
        <stop busStop="1323.TA.92-1-N-j24-1.88.H.19" duration="10" until="360"/> <!-- St. Moritz Bad, Via Salet -->
        <stop busStop="1323.TA.92-1-N-j24-1.88.H.20" duration="10" until="420"/> <!-- St. Moritz Bad, Kath. Kirche -->
        <stop busStop="1323.TA.92-1-N-j24-1.88.H.21" duration="10" until="480"/> <!-- St. Moritz Bad, Sonne -->
        <stop busStop="1323.TA.92-1-N-j24-1.88.H.22" duration="10" until="540"/> <!-- St. Moritz Bad, Hallenbad -->
        <stop busStop="1323.TA.92-1-N-j24-1.88.H.23" duration="10" until="600"/> <!-- St. Moritz Bad, Via San Gian -->
    </route>
    <route id="2186.TA.92-1-N-j24-1.14.R" edges="-23843004#1 -235504954#7 -235504954#6 -235504954#5 -235504954#3 -235504954#2 -235504954#1 -235504954#0 -23843002#1 -23843002#0 25411221#0 25411221#1 25411221#2 25411221#4 -1115818840#0 -1115818841#9 -1115818841#8 -1115818841#7 -1115818841#5 -1115818841#4 -1115818841#3 -1115818841#2 -1115818841#1 -1115818841#0 -1435928297#1 -1435928297#0 -19736079#8 -19736079#7 -19736079#6 -19736079#5 -19736079#4 -19736079#3 -19736079#2 -19736079#1 -19736079#0 -1435928294#6 -1435928294#5 -1435928294#4 -1435928294#3 -1435928294#2 -1435928294#1 -1435928293 -387218855 471086538 173039318 471089169 19724333#0 19724333#1 27257046#0 27257046#1 27257046#2 27257048#0 27257048#1 30984022#3 -31178572#1 -31178572#0 -25418889#0 25418888#2 25418888#3 25418890#0 25418890#1 -25418890#1 25418890#1 1070048494 25418891 25418892#0 25418892#1 182559620#2 182559623#0 182559623#1 182559623#2 182559623#3 173044383">
        <stop busStop="2186.TA.92-1-N-j24-1.14.R.0" duration="10" until="0"/> <!-- Pontresina, Post -->
        <stop busStop="2186.TA.92-1-N-j24-1.14.R.1" duration="10" until="60"/> <!-- Pontresina, Punt Ota Sur -->
        <stop busStop="2186.TA.92-1-N-j24-1.14.R.2" duration="10" until="180"/> <!-- Pontresina, Schlossgarage -->
        <stop busStop="2186.TA.92-1-N-j24-1.14.R.3" duration="10" until="240"/> <!-- Pontresina, Sportpavillon -->
        <stop busStop="2186.TA.92-1-N-j24-1.14.R.4" duration="10" until="300"/> <!-- Pontresina, Godin -->
        <stop busStop="1323.TA.92-1-N-j24-1.88.H.6" duration="10" until="480"/> <!-- Punt Muragl, Talstation -->
        <stop busStop="1323.TA.92-1-N-j24-1.88.H.4" duration="10" until="660"/> <!-- Samedan, Porta Samedan -->
        <stop busStop="1323.TA.92-1-N-j24-1.88.H.4" duration="10" until="720"/> <!-- Samedan, Golf -->
        <stop busStop="1323.TA.92-1-N-j24-1.88.H.0" duration="10" until="960"/> <!-- Samedan, Bahnhof -->
    </route>
    <route id="2429.TA.92-1-N-j24-1.91.R" edges="170952324#1 170952324#2 170952324#3 170952324#5 -170940321#1 -170940321#0 -51814855 30050433#0 30050433#1 30050433#2 30050433#3 -819945220#2 -819945220#1 -819945220#0 -120840708 -30957915 -914487470 -25303411#0 14014144#0 14014144#1 14014144#2 25303487#0 25303487#1 25303487#2 25303487#3 25303487#4 25303487#5 25303487#6 152517715#0 152517715#1 152517715#3 152517715#4 152517443#0 152517443#1 152517443#2 819945209 -1467922383 -819945211 -819942944#4 -819942944#3 -819942944#2 -152520535 -1068735337 -819942945#2 -819942945#0 -1068735342#1 -1068735342#0 47578286 -120840712#0 -903531446 -120840710 -897592613 519913261#0 519913261#1 897620166 519913259 903495401 894516575 268146935#0 -903531446 -120840710 -897592613 -904728442 -916468197 916468198#1 916468198#2 89724876#5 89724876#6 89724876#1 916015459#0 916015459#1 -1189801663 -268776830#1 -268776830#0 888359128#3 888359128#4 -1189801662 -888359127 -1189801659#0 -1189801658 -929525144 -894588030 -26167718 -1189801656 -30664475#1 -30664475#0 -30215453 30984022#2 -27257048#1 -27257048#0 -471090480 -27257046#1 -27257046#0 -19724333#1 -19724333#0 -471089169 -173039318 -471086538 -31180358 -471086539 -31180357 -51838355#0 -26168131 966438286 19724393 26168124 341379201 61427881 61427874#1 61427874#2">
        <stop busStop="1674.TA.92-1-N-j24-1.90.R.0" duration="10" until="0"/> <!-- St. Moritz Bad, Via San Gian -->
        <stop busStop="1674.TA.92-1-N-j24-1.90.R.1" duration="10" until="60"/> <!-- St. Moritz Bad, Hallenbad -->
        <stop busStop="1674.TA.92-1-N-j24-1.90.R.2" duration="10" until="180"/> <!-- St. Moritz Bad, Sonne -->
        <stop busStop="1674.TA.92-1-N-j24-1.90.R.3" duration="10" until="240"/> <!-- St. Moritz Bad, Kath. Kirche -->
        <stop busStop="1674.TA.92-1-N-j24-1.90.R.4" duration="10" until="300"/> <!-- St. Moritz Bad, Via Salet -->
        <stop busStop="1674.TA.92-1-N-j24-1.90.R.5" duration="10" until="360"/> <!-- St. Moritz Bad, Via Aruons -->
        <stop busStop="1674.TA.92-1-N-j24-1.90.R.6" duration="10" until="540"/> <!-- St. Moritz, Schulhausplatz -->
        <stop busStop="1674.TA.92-1-N-j24-1.90.R.6" duration="10" until="600"/> <!-- St. Moritz, Klinik Gut -->
        <stop busStop="1323.TA.92-1-N-j24-1.88.H.14" duration="10" until="780"/> <!-- St. Moritz, Bahnhof -->
        <stop busStop="2429.TA.92-1-N-j24-1.91.R.9" duration="10" until="1020"/> <!-- Punt Muragl, Talstation -->
        <stop busStop="2429.TA.92-1-N-j24-1.91.R.10" duration="10" until="1380"/> <!-- Pontresina, Bahnhof -->
    </route>
    <route id="2463.TA.92-1-N-j24-1.93.R" edges="1068735330#7 30957906 1068735331 -30952515#1 -30952515#0 72562019#0 72562019#1 72562019#2 72562019#3 72562019#4 1435131955#1 1435131955#2 894841757 894841758 1219872251 30957907 -30957907 -1219872251 1219872251 30957907 1219872250 1219872249#0 1219872249#1 89727907 89727905#1 501346486 543256263#4 543256263#1 543256263#2 -543256264#1 -543256264#0 -1435131960#2 -1435131960#1 -268146971#4 -268146971#3 -268146971#2 -268146971#1 -268146971#0 769993301#3 769993301#4 769993301#5 19724261 170952324#0 170952324#1 170952324#2 170952324#3 170952324#5 -170940321#1 -170940321#0 -51814855 30050433#0 30050433#1 30050433#2 30050433#3 -819945220#2 -819945220#1 -819945220#0 -120840708 -30957915 -914487470 -25303411#0 14014144#0 14014144#1 14014144#2 25303487#0 25303487#1 25303487#2 25303487#3 25303487#4 25303487#5 25303487#6 152517715#0 152517715#1 152517715#3 152517715#4 152517443#0 152517443#1 152517443#2 819945209 -1467922383 -819945211 -819942944#4 -819942944#3 -819942944#2 -152520535 -1068735337 -819942945#2 -819942945#0 -1068735342#1 -1068735342#0 47578286 -120840712#0 -903531446">
        <stop busStop="2463.TA.92-1-N-j24-1.93.R.0" duration="10" until="0"/> <!-- Champfèr, Guardalej -->
        <stop busStop="2463.TA.92-1-N-j24-1.93.R.1" duration="10" until="120"/> <!-- Champfèr, Schulhaus -->
        <stop busStop="1323.TA.92-1-N-j24-1.88.H.25" duration="10" until="180"/> <!-- St. Moritz Bad, Campingplatz -->
        <stop busStop="2463.TA.92-1-N-j24-1.93.R.3" duration="10" until="300"/> <!-- St. Moritz Bad, Signalbahn -->
        <stop busStop="1674.TA.92-1-N-j24-1.90.R.0" duration="10" until="360"/> <!-- St. Moritz Bad, Via San Gian -->
        <stop busStop="1674.TA.92-1-N-j24-1.90.R.1" duration="10" until="420"/> <!-- St. Moritz Bad, Hallenbad -->
        <stop busStop="1674.TA.92-1-N-j24-1.90.R.2" duration="10" until="540"/> <!-- St. Moritz Bad, Sonne -->
        <stop busStop="1674.TA.92-1-N-j24-1.90.R.3" duration="10" until="600"/> <!-- St. Moritz Bad, Kath. Kirche -->
        <stop busStop="1674.TA.92-1-N-j24-1.90.R.4" duration="10" until="660"/> <!-- St. Moritz Bad, Via Salet -->
        <stop busStop="1674.TA.92-1-N-j24-1.90.R.5" duration="10" until="720"/> <!-- St. Moritz Bad, Via Aruons -->
        <stop busStop="1674.TA.92-1-N-j24-1.90.R.6" duration="10" until="900"/> <!-- St. Moritz, Schulhausplatz -->
        <stop busStop="1674.TA.92-1-N-j24-1.90.R.6" duration="10" until="960"/> <!-- St. Moritz, Klinik Gut -->
        <stop busStop="1323.TA.92-1-N-j24-1.88.H.14" duration="10" until="1080"/> <!-- St. Moritz, Bahnhof -->
    </route>
    <route id="2545.TA.92-1-N-j24-1.95.R" edges="-1050853709#0 -30957925 30957926#1 -25418590#8 -25418590#7 -25418590#6 -25418590#5 -25418590#4 -25418590#2 -25418590#1 -25418590#0 25418591#0 25418591#1 25418591#2 25418591#3 25418591#4 25418591#5 30957917#0 30957917#1 96461188 -187633173#1 -187633173#0 -187633169#4 -187633169#3 -187633169#2 -187633169#1 -187633169#0 -1050853680 -25418588#1 -25418588#0 -19738790#0 -1050853679 -19738795 1086005531 1086005530 1136237769 1086005533 72561993#0 72561993#1 1219863760#1 1219863759 775388350 1136239036 -209788024#1 -209788024#0 -182098926 182550686#0 182550686#1 72562012 1219872252 209049898 894841758 1219872251 30957907 1219872250 1219872249#0 1219872249#1 89727907 89727905#1 501346486 543256263#4 543256263#1 543256263#2 -543256264#1 -543256264#0 -1435131960#2 -1435131960#1 -268146971#4 -268146971#3 -268146971#2 -268146971#1 -268146971#0 769993301#3 769993301#4 769993301#5 19724261 170952324#0 170952324#1 170952324#2 170952324#3 170952324#5 -170940321#1 -170940321#0 -51814855 30050433#0 30050433#1 30050433#2 30050433#3 -819945220#2 -819945220#1 -819945220#0 -120840708 -30957915 -914487470 -25303411#0 14014144#0 14014144#1 14014144#2 25303487#0 25303487#1 25303487#2 25303487#3 25303487#4 25303487#5 25303487#6 152517715#0 152517715#1 152517715#3 152517715#4 152517443#0 152517443#1 152517443#2 819945209 -1467922383 -819945211 -819942944#4 -819942944#3 -819942944#2 -152520535 -1068735337 -819942945#2 -819942945#0 -1068735342#1 -1068735342#0 47578286 -120840712#0 -903531446">
        <stop busStop="2545.TA.92-1-N-j24-1.95.R.0" duration="10" until="0"/> <!-- Surlej, Corvatschbahn -->
        <stop busStop="2545.TA.92-1-N-j24-1.95.R.1" duration="10" until="60"/> <!-- Surlej, Foppas -->
        <stop busStop="2545.TA.92-1-N-j24-1.95.R.2" duration="10" until="120"/> <!-- Surlej, Punt -->
        <stop busStop="2545.TA.92-1-N-j24-1.95.R.3" duration="10" until="240"/> <!-- Silvaplana, Rundella Curtins -->
        <stop busStop="2545.TA.92-1-N-j24-1.95.R.4" duration="10" until="420"/> <!-- St. Moritz Bad, Campingplatz -->
        <stop busStop="2463.TA.92-1-N-j24-1.93.R.3" duration="10" until="540"/> <!-- St. Moritz Bad, Signalbahn -->
        <stop busStop="1674.TA.92-1-N-j24-1.90.R.0" duration="10" until="600"/> <!-- St. Moritz Bad, Via San Gian -->
        <stop busStop="1674.TA.92-1-N-j24-1.90.R.1" duration="10" until="660"/> <!-- St. Moritz Bad, Hallenbad -->
        <stop busStop="1674.TA.92-1-N-j24-1.90.R.2" duration="10" until="780"/> <!-- St. Moritz Bad, Sonne -->
        <stop busStop="1674.TA.92-1-N-j24-1.90.R.3" duration="10" until="840"/> <!-- St. Moritz Bad, Kath. Kirche -->
        <stop busStop="1674.TA.92-1-N-j24-1.90.R.4" duration="10" until="900"/> <!-- St. Moritz Bad, Via Salet -->
        <stop busStop="1674.TA.92-1-N-j24-1.90.R.5" duration="10" until="960"/> <!-- St. Moritz Bad, Via Aruons -->
        <stop busStop="1674.TA.92-1-N-j24-1.90.R.6" duration="10" until="1140"/> <!-- St. Moritz, Schulhausplatz -->
        <stop busStop="1674.TA.92-1-N-j24-1.90.R.6" duration="10" until="1200"/> <!-- St. Moritz, Klinik Gut -->
        <stop busStop="1323.TA.92-1-N-j24-1.88.H.14" duration="10" until="1320"/> <!-- St. Moritz, Bahnhof -->
    </route>
    <route id="2746.TA.92-1-N-j24-1.100.R" edges="25418591#5 30957917#0 30957917#1 96461188 -187633173#1 -187633173#0 -187633169#4 -187633169#3 -187633169#2 -187633169#1 -187633169#0 -1050853680 -25418588#1 -25418588#0 -19738790#0 -1050853679 -19738795 1086005531 1086005530 1136237769 1086005533 72561993#0 72561993#1 1219863760#1 1219863759 775388350 1136239036 -209788024#1 -209788024#0 -182098926 182550686#0 182550686#1 72562012 1219872252 209049898 894841758 1219872251 30957907 1219872250 1219872249#0 1219872249#1 89727907 89727905#1 501346486 543256263#4 543256263#1 543256263#2 -543256264#1 -543256264#0 -1435131960#2 -1435131960#1 -268146971#4 -268146971#3 -268146971#2 -268146971#1 -268146971#0 769993301#3 769993301#4 769993301#5 19724261 170952324#0 170952324#1 170952324#2 170952324#3 170952324#5 -170940321#1 -170940321#0 -51814855 30050433#0 30050433#1 30050433#2 30050433#3 -819945220#2 -819945220#1 -819945220#0 -120840708 -30957915 -914487470 -25303411#0 14014144#0 14014144#1 14014144#2 25303487#0 25303487#1 25303487#2 25303487#3 25303487#4 25303487#5 25303487#6 152517715#0 152517715#1 152517715#3 152517715#4 152517443#0 152517443#1 152517443#2 819945209 -1467922383 -819945211 -819942944#4 -819942944#3 -819942944#2 -152520535 -1068735337 -819942945#2 -819942945#0 -1068735342#1 -1068735342#0 47578286 -120840712#0 -903531446 -120840710 -897592613 519913261#0 519913261#1 897620166 519913259 903495401 894516575 268146935#0 -903531446 -120840710 -897592613 -904728442 -916468197 916468198#1 916468198#2 89724876#5 89724876#6 89724876#1 916015459#0 916015459#1 -1189801663 -268776830#1 -268776830#0 888359128#3 888359128#4 -1189801662 -888359127 -1189801659#0 -1189801658 -929525144 -894588030 -26167718 -1189801656 -30664475#1 -30664475#0 -30215453 30984022#2 -27257048#1 -27257048#0 -471090480 -27257046#1 -27257046#0 -19724333#1 -19724333#0 -471089169 -173039318 -471086538 -31180358 -471086539 -31180357 -51838355#0 -26168131 966438286 19724393 26168124 341379201 61427881 61427874#1 61427874#2 61427874#3 -61427874#3 -61427874#2 -61427874#1 -61427874#0 -341379201 -26168127 -19724393 966438288 -68284375 -505119661 -61427886#6 -61427886#5 -61427886#3 -61427886#2 -61427886#1 -61427886#0 -23843004#2 -23843004#1 -235504954#7 -235504954#6 -235504954#5 -235504954#3 -235504954#2 -235504954#1 -235504954#0 -23843002#1 -23843002#0 25411221#0 25411221#1 25411221#2 25411221#4 -1115818840#0 -1115818841#9 -1115818841#8 -1115818841#7 -1115818841#5 -1115818841#4 -1115818841#3 -1115818841#2 -1115818841#1 -1115818841#0 -1435928297#1 -1435928297#0 -19736079#8 -19736079#7 -19736079#6 -19736079#5 -19736079#4 -19736079#3 -19736079#2 -19736079#1 -19736079#0 -1435928294#6 -1435928294#5 -1435928294#4 -1435928294#3 -1435928294#2 -1435928294#1 -1435928293 -387218855 471086538 173039318 471089169 19724333#0 19724333#1 27257046#0 27257046#1 27257046#2 27257048#0 27257048#1 30984022#3 -31178572#1 -31178572#0 -25418889#0 25418888#2 25418888#3 25418890#0 25418890#1 -25418890#1 25418890#1 1070048494 25418891 25418892#0 25418892#1 182559620#2 182559623#0 182559623#1 182559623#2 182559623#3 173044383">
        <stop busStop="2545.TA.92-1-N-j24-1.95.R.1" duration="10" until="0"/> <!-- Surlej, Foppas -->
        <stop busStop="2545.TA.92-1-N-j24-1.95.R.2" duration="10" until="60"/> <!-- Surlej, Punt -->