<routes xmlns:xsi="http://www.w3.org/2001/XMLSchema-instance" xsi:noNamespaceSchemaLocation="http://sumo.dlr.de/xsd/routes_file.xsd">
    <person id="32" depart="28958.69" departPos="random">
        <walk edges="185833040#1 185833040#0 -18887954#2 -18887954#1 18887954#0 -31061888#1 -187198083#7 187198083#6 187198083#5 -187198083#3 -187198083#2 187198083#1 187198083#0 -117614806 1136237781 76091870#2 76091870#1 76091870#0 1136237774 76091869#0 -209788013" busStop="459.TA.92-10-J-j24-1.71.H.27" /> 
        <ride busStop="459.TA.92-10-J-j24-1.71.H.29" intended="2158.TA.92-6-I-j24-1.16.H.0" depart="29690.00" /> 
        <ride busStop="16.TA.96-290-0-j24-1.26.H.9" intended="29.TA.96-290-0-j24-1.10.H.0" depart="30950.00" /> 
        <walk edges="-890169725#1 -890169725#0 890169724#2" arrivalPos="24.95" />
    </person>
    <person id="122" depart="28979.52" departPos="random">
        <walk edges="-210208895 1115015079#2 -1115015079#3 268152262#1 -268152262#2 268152262#3 268152262#4 -268152262#5 -268152262#6 1115015078#0 -1115015078#1 -1115015078#2 1115015078#3 1115015077#1 -1115015077#2 391952926#1 391952926#2 -391952926#3 -39830434#2 39830434#1 39830434#0 268146940#2 -268146940#1 -268146940#0 -268146944#1 268146944#0 25412020#0 25412019" busStop="262.TA.92-10-J-j24-1.4.H.10" /> 
        <ride busStop="1034.TA.92-2-L-j24-1.15.H.13" intended="980.TA.92-2-L-j24-1.15.H.0" depart="31190.00" /> 
        <walk edges="25303488#4 1068735334 69347933#0 -69347933#1 -188727781#1 -188727781#0" arrivalPos="105.14" />
    </person>
    <person id="83" depart="29197.95" departPos="random">
        <walk edges="-30957910#1 30957910#0 -977370315 30957908#1 19724000#2 915198676#2 -915198676#0 915198664 915198665#2 769993301#2 769993301#3 754285231 543256262 543256263#2 543256263#3 -501346486 -89727905#1 -89727905#0 -1219872249#1 1219872249#0 1219872250 -30957907" busStop="1008.TA.92-1-N-j24-1.88.H.25" /> 
        <ride busStop="1008.TA.92-1-N-j24-1.88.H.26" intended="1153.TA.92-1-N-j24-1.89.H.0" depart="31610.00" /> 
        <ride busStop="459.TA.92-10-J-j24-1.71.H.28" intended="980.TA.92-2-L-j24-1.15.H.0" depart="31970.00" /> 
        <walk edges="-96461182#0 96461182#1" arrivalPos="1.99" />
    </person>
    <person id="65" depart="29217.29" departPos="random">
        <walk edges="-268152262#5 -268152262#6 1115015078#0 -1115015078#1 -1115015078#2 1115015078#3 1115015077#1 -1115015077#2 391952926#1 391952926#2 -391952926#3 -39830434#2 39830434#1 39830434#0 268146940#2 -578147406 1005048062#1 -1005048061#0 1005048061#1 -1005048061#2 -152522410#1 819942940#1 819942940#0 -1005052428#2 1005052428#1 -41595601#5 41595601#4 41595601#3 -41595601#2 41595601#0 819945210#0 -1467922383 819945211 -819942944#4 819942944#3" busStop="1008.TA.92-1-N-j24-1.88.H.15" /> 
        <ride busStop="1008.TA.92-1-N-j24-1.88.H.25" intended="667.TA.92-6-I-j24-1.3.H.0" depart="30530.00" /> 
        <ride busStop="1008.TA.92-1-N-j24-1.88.H.26" intended="1153.TA.92-1-N-j24-1.89.H.0" depart="31610.00" /> 
        <ride busStop="459.TA.92-10-J-j24-1.71.H.34" intended="980.TA.92-2-L-j24-1.15.H.0" depart="31970.00" /> 
        <walk edges="894576903 -170952349#1 170952349#0 1068729371#2 -1068729371#1 1068729371#0 315159485#6 -315159485#5 -315159485#4 315159485#3 -315159485#2 -315159485#1 315159485#0 -977972909 501346489#2 -501346489#1 -501346489#0 -320549341#2 320549341#1 -320549341#0 170952338#5 69218976#0 -1441870936#7 1441870936#6 1441870936#5 1441870936#4 1441870936#3 1441870936#2 1441870936#1 -320549344 -695907287#1 695907287#0" arrivalPos="16.12" />
    </person>
    <person id="26" depart="29784.39" departPos="random">
        <walk edges="59637812#3 -59637812#2 59637812#1 59637812#0 -58413640#0 -209755663#0 209755663#2 209755663#3" busStop="1136.TA.92-10-J-j24-1.22.R.5" /> 
        <ride busStop="1136.TA.92-10-J-j24-1.22.R.7" intended="61.TA.96-290-0-j24-1.30.R.0" depart="30230.00" /> 
        <walk edges="76091869#1 76091869#0 1136237774 -76091870#0 76091870#1 76091870#2 1136237781 -117614806 116077721#0 116077721#1 116077721#2 -116077721#3 186141915#0 -186141915#1 1430507283 -645951511#0 1085798451 1068941219#1" arrivalPos="36.60" />
    </person>
    <person id="129" depart="29903.27" departPos="random">
        <walk edges="1428300393#2 -1428300393#2 69347933#1 69347933#0 1068735334 154770319#4 -154770319#3 154770319#2 154770319#1 154770319#0 25303487#5 25303487#6 -152517715#0 -152517715#1 152517715#3" busStop="1679.TA.92-1-N-j24-1.90.R.5" /> 
        <ride busStop="1008.TA.92-1-N-j24-1.88.H.14" intended="2470.TA.92-1-N-j24-1.95.R.0" depart="31490.00" /> 
        <walk edges="519913263#1 519913263#0 897592613 519913261#0 519913261#1" arrivalPos="1.24" />
    </person>
    <person id="138" depart="30205.95" departPos="random">
        <walk edges="72562019#0 72562018 1068735331 30957906 1068735330#7 -1068735330#5 1068735330#4 -1068735330#2 1068735330#1" busStop="1136.TA.92-10-J-j24-1.22.R.13" /> 
        <ride busStop="1286.TA.92-2-L-j24-1.22.R.5" intended="1356.TA.92-2-L-j24-1.27.R.0" depart="31010.00" /> 
        <walk edges="-1115020158 -1115020159 1068735336#3 -1068735336#2 -1068735336#1 1068735336#0 25303490 819945209 -1467922383 819945211 -819942944#4 819942944#3 819942944#2 -152520535 1068735337 819942945#2 -819942945#0 1068735342#1 1068735342#0 -47578286 120840712#0 268146935#0 894516575 903495401 519913265#1" arrivalPos="20.38" />
    </person>
    <person id="109" depart="30649.67" departPos="random">
        <walk edges="-894841757 -894841758 1219872251 -30957907" busStop="1008.TA.92-1-N-j24-1.88.H.25" /> 
        <ride busStop="1008.TA.92-1-N-j24-1.88.H.27" intended="1153.TA.92-1-N-j24-1.89.H.0" depart="31610.00" /> 
        <walk edges="25418588#1 -1050853680 -187633169#0 -187633169#1 -187633169#2 187633169#3" arrivalPos="0.36" />
    </person>
    <person id="69" depart="30891.43" departPos="random">
        <walk edges="30952515#1 -30952515#0" busStop="2386.TA.92-1-N-j24-1.93.R.1" /> 
        <ride busStop="1008.TA.92-1-N-j24-1.88.H.25" intended="3062.TA.92-6-I-j24-1.22.R.0" depart="31490.00" /> 
        <ride busStop="1008.TA.92-1-N-j24-1.88.H.26" intended="1153.TA.92-1-N-j24-1.89.H.0" depart="31610.00" /> 
        <ride busStop="459.TA.92-10-J-j24-1.71.H.34" intended="980.TA.92-2-L-j24-1.15.H.0" depart="31970.00" /> 
        <walk edges="894576903 -170952349#1 170952349#0 1068729371#2 -1068729371#1 1068729371#0 315159485#6 -315159485#5 -315159485#4 315159485#3 -315159485#2 -315159485#1 315159485#0 -977972909 -501346489#2" busStop="16.TA.96-290-0-j24-1.26.H.1" /> 
        <ride busStop="16.TA.96-290-0-j24-1.26.H.16" intended="21.TA.96-290-0-j24-1.10.H.0" depart="35270.00" /> 
        <walk edges="1426892794#3 1426892796 1426892784 1426892791 1426892783 1426892797 -1024855417 -1426892804 1424064286 -429497064 -1426892773 -429497063#1 429497063#0 1187206777 370855281#7 -370855281#6" busStop="24.TA.96-290-3-j24-1.3.R.2" /> 
        <ride busStop="24.TA.96-290-3-j24-1.3.R.4" intended="27.TA.96-290-3-j24-1.3.R.0" depart="38090.00" /> 
        <walk edges="-62065386 120839520" arrivalPos="13.90" />
    </person>
    <person id="63" depart="30915.84" departPos="random">
        <walk edges="-37804543#2 37804543#3 -37804543#4 -1161282679#1 -1161282679#0 268146940#6 268146940#5 -268146940#4 268146940#3 268146940#2 -268146940#1 -268146940#0 -268146944#1 268146944#0 25412020#0 25412019" busStop="262.TA.92-10-J-j24-1.4.H.10" /> 
        <ride busStop="1008.TA.92-1-N-j24-1.88.H.26" intended="2215.TA.92-6-I-j24-1.16.H.0" depart="31730.00" /> 
        <walk edges="1086005529 14014136#0 14014136#1 14014136#2 1086005535 -209788013" busStop="459.TA.92-10-J-j24-1.71.H.27" /> 
        <ride busStop="459.TA.92-10-J-j24-1.71.H.28" intended="2215.TA.92-6-I-j24-1.16.H.0" depart="33290.00" /> 
        <ride busStop="459.TA.92-10-J-j24-1.71.H.33" intended="3.TA.96-290-0-j24-1.2.H.0" depart="33650.00" /> 
        <walk edges="315159496#1 315159496#2 -315159496#3" arrivalPos="4.44" />
    </person>
    <person id="153" depart="30962.87" departPos="random">
        <walk edges="-188731354#1 -1428300393#0 1188934794 188730896#1 188730896#0 69347933#1 69347933#0 1068735334 25303488#3 25303488#2 25303488#1 -25303488#0 1115020158 -1115020159 1068735336#3 -1068735336#2 -1068735336#1 1068735336#0 25303490 819945209 -1467922383 819945211 -819942944#4" busStop="1679.TA.92-1-N-j24-1.90.R.6" /> 
        <ride busStop="1008.TA.92-1-N-j24-1.88.H.14" intended="3050.TA.92-1-N-j24-1.101.R.0" depart="33530.00" /> 
        <walk edges="519913263#1 519913263#0 897592613 519913261#0 519913261#1" arrivalPos="12.82" />
    </person>
    <person id="89" depart="31346.34" departPos="random">
        <walk edges="-25303412 -89726026#1 -89726026#0 51814854 30957915 -1132581922 1441721435 -382202904#4 382202904#3 -382202904#2 -382202904#1 382202904#0 -170952322#1 170952322#0 170952324#5 -170952324#3 170952324#2 -170952324#1" busStop="1008.TA.92-1-N-j24-1.88.H.23" /> 
        <ride busStop="1008.TA.92-1-N-j24-1.88.H.26" intended="2215.TA.92-6-I-j24-1.16.H.0" depart="32150.00" /> 
        <walk edges="1086005529 14014136#0 14014136#1 14014136#2 1086005535 -209788013" busStop="459.TA.92-10-J-j24-1.71.H.27" /> 
        <ride busStop="459.TA.92-10-J-j24-1.71.H.28" intended="2215.TA.92-6-I-j24-1.16.H.0" depart="33290.00" /> 
        <ride busStop="459.TA.92-10-J-j24-1.71.H.31" intended="3.TA.96-290-0-j24-1.2.H.0" depart="33650.00" /> 
        <walk edges="-56240189#0 -188063062" arrivalPos="10.79" />
    </person>
    <person id="156" depart="31417.42" departPos="random">
        <walk edges="1005170350 152517715#3" busStop="1679.TA.92-1-N-j24-1.90.R.5" /> 
        <ride busStop="1008.TA.92-1-N-j24-1.88.H.14" intended="2470.TA.92-1-N-j24-1.95.R.0" depart="31490.00" /> 
        <walk edges="519913263#1 519913263#0 897592613 519913261#0 519913261#1" arrivalPos="7.50" />
    </person>
    <person id="146" depart="32072.04" departPos="random">
        <walk edges="-96461180#5 96461180#5 -96461180#4 96461180#3 -96461180#1 96461180#0 -819945220#2 819945220#1 819945220#0 120840708 -30957915" busStop="1679.TA.92-1-N-j24-1.90.R.3" /> 
        <ride busStop="1008.TA.92-1-N-j24-1.88.H.14" intended="3050.TA.92-1-N-j24-1.101.R.0" depart="33170.00" /> 
        <walk edges="519913263#1 897620166 894622277 519913257#1" arrivalPos="25.06" />
    </person>
    <person id="85" depart="32165.36" departPos="random">
        <walk edges="-89726026#1 -89726026#0 51814854 30957915" busStop="1008.TA.92-1-N-j24-1.88.H.20" /> 
        <ride busStop="2386.TA.92-1-N-j24-1.93.R.0" intended="679.TA.92-6-I-j24-1.3.H.0" depart="32510.00" /> 
        <walk edges="1068735330#7 -1068735330#5 1068735330#4 -1068735330#2 -1068735330#1" busStop="459.TA.92-10-J-j24-1.71.H.21" /> 
        <ride busStop="459.TA.92-10-J-j24-1.71.H.31" intended="3.TA.96-290-0-j24-1.2.H.0" depart="33050.00" /> 
        <walk edges="-56240189#0 1418170811 72561717#0 -72561717#1 72561717#2" arrivalPos="123.48" />
    </person>
    <person id="37" depart="32180.65" departPos="random">
        <walk edges="612250570#1 612250570#0 1068941218 -1068941219#9 -1068941219#8 -1068941219#7 1068941219#6 1068941219#5 1068941219#4 -1068941219#3 -1068941219#2 -1068941219#1 1085798451 -645951511#0 1430507283 -186141915#1 186141915#0 -116077721#3 116077721#2 116077721#1 116077721#0 -117614806 1136237781 76091870#2 76091870#1 76091870#0 1136237774 76091869#0 -209788013" busStop="459.TA.92-10-J-j24-1.71.H.27" /> 
        <ride busStop="459.TA.92-10-J-j24-1.71.H.28" intended="948.TA.92-2-L-j24-1.15.H.0" depart="35630.00" /> 
        <walk edges="-96461182#0 1472605488#2" arrivalPos="19.54" />
    </person>
    <person id="94" depart="32367.26" departPos="random">
        <walk edges="1158102646 175791806#0 -175791806#1 170940321#0" busStop="1008.TA.92-1-N-j24-1.88.H.22" /> 
        <ride busStop="2386.TA.92-1-N-j24-1.93.R.0" intended="679.TA.92-6-I-j24-1.3.H.0" depart="32630.00" /> 
        <walk edges="1068735330#7 -1068735330#5 1068735330#4 -1068735330#2 -1068735330#1" busStop="459.TA.92-10-J-j24-1.71.H.21" /> 
        <ride busStop="459.TA.92-10-J-j24-1.71.H.31" intended="3.TA.96-290-0-j24-1.2.H.0" depart="33050.00" /> 
        <walk edges="-56240189#0 -188063062" arrivalPos="0.88" />
    </person>
    <person id="106" depart="32394.65" departPos="random">
        <walk edges="-154770319#1 154770319#1 154770319#0 -25303487#4" busStop="1008.TA.92-1-N-j24-1.88.H.19" /> 
        <ride busStop="1008.TA.92-1-N-j24-1.88.H.25" intended="1226.TA.92-1-N-j24-1.89.H.0" depart="33050.00" /> 
        <ride busStop="196.TA.96-260-1-j24-1.12.R.3" intended="305.TA.96-260-1-j24-1.21.R.0" depart="33830.00" /> 
        <walk edges="1068941219#7 -1068941219#8" arrivalPos="19.70" />
    </person>
    <person id="136" depart="32421.41" departPos="random">
        <walk edges="-543256264#1 543256263#2 543256263#1 915198667 915198663 769993301#5 19724261 170952324#0 170952324#1 170952324#2 -170952324#3 -170952324#5 170940321#1 -170940321#0" busStop="1679.TA.92-1-N-j24-1.90.R.1" /> 
        <ride busStop="1679.TA.92-1-N-j24-1.90.R.2" intended="712.TA.92-9-H-j24-1.10.H.0" depart="32990.00" /> 
        <ride busStop="1008.TA.92-1-N-j24-1.88.H.14" intended="3050.TA.92-1-N-j24-1.101.R.0" depart="33110.00" /> 
        <walk edges="519913263#1 519913263#0 897592613 904728442 519913257#0 519913257#1" arrivalPos="8.79" />
    </person>
    <person id="145" depart="32561.15" departPos="random">
        <walk edges="152336656#0 391952926#1 391952926#2 -391952926#3 -39830434#2 39830434#1 39830434#0 268146940#2 -578147406 1005048062#1 -1005048061#0 1005048061#1 -1005048061#2 -152522410#1 819942940#1 819942940#0 -1005052428#2 1005052428#1 -41595601#5 41595601#4 41595601#3 -41595601#2 41595601#0 819945210#0 -1467922383 819945211 -819942944#4" busStop="1679.TA.92-1-N-j24-1.90.R.6" /> 
        <ride busStop="1008.TA.92-1-N-j24-1.88.H.14" intended="3050.TA.92-1-N-j24-1.101.R.0" depart="33530.00" /> 
        <walk edges="519913263#1 519913263#0 -120840710 519913265#0 519913265#1" arrivalPos="17.37" />
    </person>
    <person id="77" depart="32681.32" departPos="random">
        <walk edges="25366042#2 -25366042#1 25366042#0 268146940#5 -268146940#4 268146940#3 268146940#2 -578147406 1005048062#1 -1005048061#0 1005048061#1 -1005048061#2 -152522410#1 819942940#1 819942940#0 -1005052428#2 1005052428#1 -41595601#5 41595601#4 41595601#3 -41595601#2 41595601#0 819945210#0 819945209 -152517443#2 -152517443#1" busStop="1008.TA.92-1-N-j24-1.88.H.17" /> 
        <ride busStop="1008.TA.92-1-N-j24-1.88.H.23" intended="1477.TA.92-6-I-j24-1.11.H.0" depart="33530.00" /> 
        <ride busStop="1008.TA.92-1-N-j24-1.88.H.25" intended="562.TA.92-6-I-j24-1.3.H.0" depart="34550.00" /> 
        <ride busStop="1008.TA.92-1-N-j24-1.88.H.26" intended="1564.TA.92-1-N-j24-1.89.H.0" depart="35210.00" /> 
        <ride busStop="459.TA.92-10-J-j24-1.71.H.28" intended="948.TA.92-2-L-j24-1.15.H.0" depart="35570.00" /> 
        <walk edges="-96461182#0 96461182#1 -96461182#2 -66846274 14014133#2 14014133#3 -56240279#4 56240279#2 516876125" arrivalPos="175.31" />
    </person>
    <person id="151" depart="33007.36" departPos="random">
        <walk edges="1113136564#1 1113136564#0" busStop="1.TA.92-4-Q-j24-1.7.R.12" /> 
        <ride busStop="154.TA.92-1-N-j24-1.77.H.0" intended="1996.TA.92-9-H-j24-1.12.R.0" depart="33650.00" /> 
        <walk edges="519913261#1 519913261#0 904728442 519913257#0 519913257#1" arrivalPos="11.35" />
    </person>
    <person id="104" depart="33017.02" departPos="random">
        <walk edges="47578286 -47578286 120840712#0 903531446 120840710 519913263#0 519913263#1" busStop="1008.TA.92-1-N-j24-1.88.H.14" /> 
        <ride busStop="459.TA.92-10-J-j24-1.71.H.21" intended="21.TA.96-290-0-j24-1.10.H.0" depart="33290.00" /> 
        <walk edges="-1068735330#1 1068735330#0 18888058 -182550686#1 182550686#0 -182098926" arrivalPos="16.99" />
    </person>
    <person id="71" depart="33377.06" departPos="random">
        <walk edges="30952527#1 -30952527#1 -72562019#1 72562019#0 72562018 1068735331 30957906 1068735330#7 -1068735330#5 1068735330#4 -1068735330#2 -1068735330#1" busStop="459.TA.92-10-J-j24-1.71.H.21" /> 
        <ride busStop="16.TA.96-290-0-j24-1.26.H.6" intended="21.TA.96-290-0-j24-1.10.H.0" depart="33650.00" /> 
        <walk edges="-430248865#1 1069366697" arrivalPos="9.14" />
    </person>
    <person id="96" depart="33553.28" departPos="random">
        <walk edges="-888359129#0 -888359129#1 1189801663 916015460#0 916015460#1 89724876#3 72562096#0 916468197 -904728442 519913261#0 519913261#1" busStop="154.TA.92-1-N-j24-1.77.H.0" /> 
        <ride busStop="1008.TA.92-1-N-j24-1.88.H.15" intended="1996.TA.92-9-H-j24-1.12.R.0" depart="33890.00" /> 
        <ride busStop="1008.TA.92-1-N-j24-1.88.H.25" intended="562.TA.92-6-I-j24-1.3.H.0" depart="34130.00" /> 
        <ride busStop="1008.TA.92-1-N-j24-1.88.H.26" intended="1564.TA.92-1-N-j24-1.89.H.0" depart="35210.00" /> 
        <ride busStop="459.TA.92-10-J-j24-1.71.H.28" intended="948.TA.92-2-L-j24-1.15.H.0" depart="35570.00" /> 
        <walk edges="-96461182#0 1472605488#1 1472605488#0 1201541125 52959697#0 52959697#1 52959697#2 -52959697#3 -256959700#0 -256959700#2 -170952321 -740107946 894849663" arrivalPos="2.66" />
    </person>
    <person id="135" depart="33562.62" departPos="random">
        <walk edges="30984020 -30984018#3 -30984018#2 -30984018#1 30984018#0 -1493002173 -72562018 72562019#0 -72562019#1 72562019#2 72562019#3 72562019#4 1435131955#1 -1435131955#2 235361066 1219872251 30957907" busStop="2467.TA.92-1-N-j24-1.95.R.4" /> 
        <ride busStop="1.TA.92-4-Q-j24-1.7.R.13" intended="75.TA.96-260-1-j24-1.2.H.0" depart="34730.00" /> 
        <walk edges="519913257#1" arrivalPos="8.64" />
    </person>
    <person id="133" depart="33753.66" departPos="random">
        <walk edges="915198665#1 915198665#0 -915198676#0 915198676#2 915198674 915198678#0" busStop="158.TA.96-260-1-j24-1.72.H.33" /> 
        <ride busStop="1.TA.92-4-Q-j24-1.7.R.13" intended="75.TA.96-260-1-j24-1.2.H.0" depart="34970.00" /> 
        <walk edges="519913257#1" arrivalPos="21.88" />
    </person>
    <person id="35" depart="33784.81" departPos="random">
        <walk edges="116511577#0 -187198083#3 -187198083#2 187198083#1 187198083#0 -117614806 1136237781 76091870#2 76091870#1 76091870#0 1136237774 76091869#0 -209788013" busStop="459.TA.92-10-J-j24-1.71.H.27" /> 
        <ride busStop="459.TA.92-10-J-j24-1.71.H.29" intended="948.TA.92-2-L-j24-1.15.H.0" depart="35630.00" /> 
        <walk edges="-894905824 -256959704#0 -209755663#4 209755663#3 209755663#2 -209755663#0 1317098557 -58413641 -150335026#4 150335026#3 150335026#2" arrivalPos="6.86" />
    </person>
    <person id="34" depart="33827.64" departPos="random">
        <walk edges="116507539#1 -116507539#0 1136237777 76091870#1 76091870#0 1136237774 76091869#0 -209788013" busStop="459.TA.92-10-J-j24-1.71.H.27" /> 
        <ride busStop="14.TA.96-290-0-j24-1.25.H.7" intended="21.TA.96-290-0-j24-1.10.H.0" depart="34010.00" /> 
        <walk edges="-633986854#1 -68115526#1 68115526#0 -68115532" arrivalPos="66.92" />
    </person>
    <person id="86" depart="34080.92" departPos="random">
        <walk edges="-120840712#2 -120840712#3 -47578286 120840712#0 903531446 120840710 519913263#0 519913263#1" busStop="1008.TA.92-1-N-j24-1.88.H.14" /> 
        <ride busStop="1008.TA.92-1-N-j24-1.88.H.23" intended="666.TA.92-9-H-j24-1.10.H.0" depart="34490.00" /> 
        <ride busStop="1008.TA.92-1-N-j24-1.88.H.26" intended="1564.TA.92-1-N-j24-1.89.H.0" depart="35150.00" /> 
        <ride busStop="459.TA.92-10-J-j24-1.71.H.32" intended="948.TA.92-2-L-j24-1.15.H.0" depart="35570.00" /> 
        <walk edges="208825826 208825827#0" arrivalPos="3.20" />
    </person>
    <person id="84" depart="34261.17" departPos="random">
        <walk edges="30050433#0 -30050433#1 -30050433#2" busStop="1008.TA.92-1-N-j24-1.88.H.21" /> 
        <ride busStop="1008.TA.92-1-N-j24-1.88.H.25" intended="562.TA.92-6-I-j24-1.3.H.0" depart="34370.00" /> 
        <ride busStop="1008.TA.92-1-N-j24-1.88.H.26" intended="1564.TA.92-1-N-j24-1.89.H.0" depart="35210.00" /> 
        <ride busStop="459.TA.92-10-J-j24-1.71.H.29" intended="948.TA.92-2-L-j24-1.15.H.0" depart="35570.00" /> 
        <walk edges="-894905824 -256959704#0 -209755663#4 209755663#3 209755663#2 -209755663#0 1317098557 59637812#0 59637812#1 -59637812#2 -59637812#3 59637812#4 -59637812#5 59637812#7 -59637812#8 59637812#9 -59637812#10 -1086010084 -1086010083 175833044#1" arrivalPos="9.70" />
    </person>
    <person id="92" depart="34281.72" departPos="random">
        <walk edges="152516783#1 152516783#2 152516783#3 152516783#4 25412020#0 25412019" busStop="262.TA.92-10-J-j24-1.4.H.10" /> 
        <ride busStop="459.TA.92-10-J-j24-1.71.H.28" intended="948.TA.92-2-L-j24-1.15.H.0" depart="34790.00" /> 
        <walk edges="-96461182#0 96461182#1 -96461182#2 -66846274 14014133#2 14014133#3 -56240279#4" arrivalPos="2.76" />
    </person>
    <person id="30" depart="34296.51" departPos="random">
        <walk edges="-198123925#1 198123925#1 198123925#0 426408073 -175833043 -175833047#2 -175833047#1 175833047#0 175833041 175833044#0 -175833044#1 -1086010083 -1086010084 -59637812#10 59637812#9 -59637812#8 59637812#7 -59637812#5 59637812#4 -59637812#3 -59637812#2 59637812#1 59637812#0 -58413640#0 -209755663#0 209755663#2 209755663#3" busStop="1136.TA.92-10-J-j24-1.22.R.5" /> 
        <ride busStop="2467.TA.92-1-N-j24-1.95.R.3" intended="55.TA.96-290-0-j24-1.29.R.0" depart="36950.00" /> 
        <ride busStop="1008.TA.92-1-N-j24-1.88.H.25" intended="41.TA.96-290-0-j24-1.35.R.0" depart="37550.00" /> 
        <walk edges="-30957907 26167898#0 26167898#1 -26167908#1 26167908#3 26167908#4 235361058#0 235361058#1" arrivalPos="17.20" />
    </person>
    <person id="11" depart="34366.98" departPos="random">
        <walk edges="-256959704#0 -894905824" busStop="459.TA.92-10-J-j24-1.71.H.29" /> 
        <ride busStop="16.TA.96-290-0-j24-1.26.H.16" intended="21.TA.96-290-0-j24-1.10.H.0" depart="34550.00" /> 
        <walk edges="1426892794#3 391649038#2" arrivalPos="9.84" />
    </person>
    <person id="90" depart="34406.46" departPos="random">
        <walk edges="196749915#2 -196749915#1 196749915#0 188730896#3 -188730896#4 188730896#5 -188730896#6 740109140 -188730894#0 -188730894#1 69347929 191253662#0 191253662#1 -191253662#2 191253662#3 -191253662#4 191253662#5 191253662#6 -191253662#7 -1068735332#3 1068735330#7 -1068735330#5 1068735330#4 -1068735330#2 -1068735330#1" busStop="459.TA.92-10-J-j24-1.71.H.21" /> 
        <ride busStop="1008.TA.92-1-N-j24-1.88.H.26" intended="155.TA.92-2-L-j24-1.3.H.0" depart="36890.00" /> 
        <ride busStop="459.TA.92-10-J-j24-1.71.H.29" intended="1.TA.96-291-0-j24-1.3.H.0" depart="37430.00" /> 
        <walk edges="-894905824 -256959704#0 -209755663#4 209755663#3 209755663#2 -209755663#0 1317098557 -58413641 -150335026#4 150335026#3 -150335026#2 150335026#1 150335026#0" arrivalPos="10.65" />
    </person>
    <person id="36" depart="34442.72" departPos="random">
        <walk edges="30957918#1 -30957918#0 25418590#0 25418591#0 25418591#1 25418591#2 25418591#3 25418591#4 25418591#5" busStop="2467.TA.92-1-N-j24-1.95.R.1" /> 
        <ride busStop="459.TA.92-10-J-j24-1.71.H.27" intended="35.TA.92-20-E-j24-1.2.R.0" depart="34790.00" /> 
        <ride busStop="459.TA.92-10-J-j24-1.71.H.29" intended="948.TA.92-2-L-j24-1.15.H.0" depart="35630.00" /> 
        <walk edges="-894905824 -256959704#0 -209755663#4 209755663#3 209755663#2 -209755663#0 1317098557 59637812#0 59637812#1 -59637812#2 -59637812#3 59637812#4 -59637812#5 59637812#7 -59637812#8 59637812#9 -59637812#10 -1086010084 -1086010083 -175833044#1 175833044#0 175833041 175833047#0 -175833047#1 -175833047#2 -175833043 -426408073 198123925#0 198123925#1" arrivalPos="23.78" />
    </person>
    <person id="165" depart="34515.08" departPos="random">
        <walk edges="-268146971#0 268146971#0 769993301#2 915198665#2 915198665#1 915198665#0 -915198676#0 915198676#2 915198674 915198678#0" busStop="158.TA.96-260-1-j24-1.72.H.33" /> 
        <ride busStop="1.TA.92-4-Q-j24-1.7.R.13" intended="75.TA.96-260-1-j24-1.2.H.0" depart="34970.00" /> 
        <walk edges="519913257#1 519913257#0 -904728442 -897592613 -120840710 903531446" arrivalPos="12.36" />
    </person>
    <person id="80" depart="35367.72" departPos="random">
        <walk edges="888359128#4 888359128#3 268776830#0 -268776830#1 1189801663 916015460#0 916015460#1 89724876#3 72562096#0 916468197 -904728442 -897592613 519913263#0 519913263#1" busStop="1008.TA.92-1-N-j24-1.88.H.14" /> 
        <ride busStop="459.TA.92-10-J-j24-1.71.H.28" intended="15.TA.96-290-0-j24-1.25.H.0" depart="36290.00" /> 
        <walk edges="-96461182#0 1472605488#1 1472605488#0 1201541125 52959697#0 52959697#1 52959697#2 -52959697#3 -256959700#0 -256959700#2 -256959703#2" arrivalPos="13.92" />
    </person>
    <person id="40" depart="35397.24" departPos="random">
        <walk edges="-30957918#3 30957918#2 30957918#1 -30957918#0 25418590#0 918403989#1 918403989#0 -30957916#4 30957916#3 -30957916#2 30957916#1 -96461188 -187633173#1 -187633173#0 187633169#4 -187633169#3" busStop="10.TA.92-20-E-j24-1.1.H.8" /> 
        <ride busStop="459.TA.92-10-J-j24-1.71.H.27" intended="37.TA.92-20-E-j24-1.2.R.0" depart="36050.00" /> 
        <walk edges="-209788013 76091869#0 1136237774 -76091870#0 -1041495497" arrivalPos="27.05" />
    </person>
    <person id="0" depart="35482.39" departPos="random">
        <walk edges="-1083277954 -429497062#0 -429497062#1 1083261780 -1083261781#0 -1083261781#1 1083261779 -370855281#0 370855281#1" busStop="1.TA.96-290-3-j24-1.1.H.1" /> 
        <ride busStop="1.TA.96-290-3-j24-1.1.H.4" intended="3.TA.96-290-3-j24-1.1.H.0" depart="36890.00" /> 
        <walk edges="120829159" busStop="14.TA.96-290-0-j24-1.25.H.11" /> 
        <ride busStop="36.TA.96-290-0-j24-1.27.R.9" intended="58.TA.96-290-0-j24-1.29.R.0" depart="37910.00" /> 
        <walk edges="430248865#10 430248865#9 -430248865#8 430248865#7 1054486961#0 -1054486961#1 1054486961#2" arrivalPos="254.09" />
    </person>
    <person id="75" depart="35846.06" departPos="random">
        <walk edges="88717666#4 -88717666#3 88717666#2 88717666#1 -96461180#4 96461180#3 -96461180#1 96461180#0 -30050433#3 -30050433#2 -30050433#1 30050433#0 -51814855 170940321#0 -170940321#1 170952324#5 -170952324#3 170952324#2 -170952324#1" busStop="1008.TA.92-1-N-j24-1.88.H.23" /> 
        <ride busStop="1008.TA.92-1-N-j24-1.88.H.26" intended="733.TA.92-1-N-j24-1.81.H.0" depart="36950.00" /> 
        <ride busStop="459.TA.92-10-J-j24-1.71.H.29" intended="1.TA.96-291-0-j24-1.3.H.0" depart="37430.00" /> 
        <walk edges="-894905824 1068735318#0 -1068735318#1 -1068735318#2 -256959702#0 -256959702#1 256959702#2" arrivalPos="9.13" />
    </person>
    <person id="64" depart="35863.86" departPos="random">
        <walk edges="-268146971#2 -268146971#1 268146971#0 769993301#2 769993301#1 769993301#0 19724261 170952324#0 -170952324#1" busStop="1008.TA.92-1-N-j24-1.88.H.23" /> 
        <ride busStop="2386.TA.92-1-N-j24-1.93.R.0" intended="463.TA.92-6-I-j24-1.3.H.0" depart="36350.00" /> 
        <walk edges="1068735330#7 -1068735330#5 1068735330#4 -1068735330#2 -1068735330#1" busStop="459.TA.92-10-J-j24-1.71.H.21" /> 
        <ride busStop="1008.TA.92-1-N-j24-1.88.H.26" intended="155.TA.92-2-L-j24-1.3.H.0" depart="36890.00" /> 
        <ride busStop="459.TA.92-10-J-j24-1.71.H.34" intended="1.TA.96-291-0-j24-1.3.H.0" depart="37430.00" /> 
        <walk edges="894576903 -170952349#1 170952349#0 1068729371#2 -1068729371#1 1068729371#0 315159485#6 -315159485#5 -315159485#4 315159485#3 315159485#2" arrivalPos="3.74" />
    </person>
    <person id="267" depart="36002.83" departPos="random">
        <walk edges="19724261 170952324#0 170952324#1 170952324#2 -170952324#3 -170952324#5 170952322#0 -170952322#1 382202904#0 -382202904#1 -382202904#2 382202904#3 -382202904#4 1441721435 -1132581922 -30957915" busStop="1679.TA.92-1-N-j24-1.90.R.3" /> 
        <ride busStop="1008.TA.92-1-N-j24-1.88.H.14" intended="3092.TA.92-1-N-j24-1.101.R.0" depart="36770.00" /> 
        <walk edges="519913263#1" arrivalPos="27.20" />
    </person>
    <person id="111" depart="36066.73" departPos="random">
        <walk edges="-894841758 235361066 -1435131955#2 1435131955#1 72562019#4 72562019#3 72562019#2 -72562019#1 72562019#0 72562018 1068735331 30957906 1068735330#7 -1068735330#5 1068735330#4 -1068735330#2 -1068735330#1" busStop="459.TA.92-10-J-j24-1.71.H.21" /> 
        <ride busStop="1008.TA.92-1-N-j24-1.88.H.26" intended="155.TA.92-2-L-j24-1.3.H.0" depart="36890.00" /> 
        <ride busStop="1008.TA.92-1-N-j24-1.88.H.27" intended="733.TA.92-1-N-j24-1.81.H.0" depart="37310.00" /> 
        <walk edges="25418588#1" arrivalPos="38.24" />
    </person>
    <person id="174" depart="36088.60" departPos="random">
        <walk edges="-56240189#4 -56240189#5 56240189#7 -56240189#8 56240189#9 -973459742#0 -973459742#1 973459742#2 973459742#3 -888425580#0 150335026#0 150335026#1 -150335026#2 150335026#3 -150335026#4 -58413641 -58413640#0 -209755663#0 209755663#2 209755663#3" busStop="1136.TA.92-10-J-j24-1.22.R.5" /> 
        <ride busStop="1008.TA.92-1-N-j24-1.88.H.14" intended="55.TA.96-290-0-j24-1.29.R.0" depart="36950.00" /> 
        <walk edges="519913263#1 519913263#0 -120840710 519913265#0 519913265#1" arrivalPos="13.51" />
    </person>
    <person id="240" depart="36202.95" departPos="random">
        <walk edges="-72562019#2 72562019#2 -72562019#1 72562019#0 72562018 1068735331 30957906 1068735330#7 -1068735330#5 1068735330#4 -1068735330#2 -1068735330#1" busStop="459.TA.92-10-J-j24-1.71.H.21" /> 
        <ride busStop="1008.TA.92-1-N-j24-1.88.H.26" intended="155.TA.92-2-L-j24-1.3.H.0" depart="36890.00" /> 