<?xml version="1.0" encoding="UTF-8"?>

<!-- generated by Eclipse SUMO duarouter 1.26.0
<duarouterConfiguration xmlns:xsi="http://www.w3.org/2001/XMLSchema-instance" xsi:noNamespaceSchemaLocation="http://sumo.dlr.de/xsd/duarouterConfiguration.xsd">

    <input>
        <net-file value="D:\Dokumente\sumo\maloja\simple.net.xml"/>
        <additional-files value="D:\Dokumente\sumo\maloja\taz_maloja_simple.add.xml,D:\Dokumente\sumo\maloja\03_bus\virtualstop.add.xml,D:\Dokumente\sumo\maloja\03_bus\03_November\vtypes.xml,D:\Dokumente\sumo\maloja\03_bus\03_November\gtfs_pt_stops.add.xml"/>
        <route-files value="D:\Dokumente\sumo\maloja\05_seniors\persontrips_maloja_seniors.xml,D:\Dokumente\sumo\maloja\03_bus\03_November\gtfs_pt_vehicles.add.xml"/>
    </input>

    <output>
        <output-file value="D:\Dokumente\sumo\maloja\05_seniors\persontrips_maloja_seniors_offseason_bus_resolved.rou.xml"/>
    </output>

    <processing>
        <persontrip.transfer.taxi-walk value="ptStops"/>
        <persontrip.transfer.walk-taxi value="ptStops"/>
    </processing>

    <report>
        <verbose value="true"/>
    </report>

</duarouterConfiguration>
-->

<routes xmlns:xsi="http://www.w3.org/2001/XMLSchema-instance" xsi:noNamespaceSchemaLocation="http://sumo.dlr.de/xsd/routes_file.xsd">
    <person id="606" depart="28833.54" departPos="random">
        <walk edges="-30957911 -977370315 30957910#0 -30957910#1 -30957910#2 152385705#2 152385705#1 -152385705#0 -25303487#4 25303487#5 25303487#6 -152517715#0 -152517715#1 152517715#3" busStop="1679.TA.92-1-N-j24-1.90.R.5"/> <!-- St. Moritz Bad, Via Aruons -->
        <ride busStop="1008.TA.92-1-N-j24-1.88.H.14" intended="2689.TA.92-1-N-j24-1.100.R.0" depart="29690.00"/> <!-- St. Moritz, Bahnhof -->
        <walk edges="519913263#1 519913259 519913265#1" arrivalPos="24.43"/>
    </person>
    <person id="167" depart="28888.60" departPos="random">
        <walk edges="-501346489#1 501346489#2 -977972909 -315159485#0 -315159485#1 315159485#2 315159485#3 315159485#4 -315159485#5 -315159485#6 1068729371#0 -1068729371#1 -1068729371#2 170952349#0 -170952349#1 -977972910" busStop="1136.TA.92-10-J-j24-1.22.R.0"/> <!-- Maloja, Posta -->
        <ride busStop="1.TA.92-4-Q-j24-1.7.R.13" intended="61.TA.96-290-0-j24-1.30.R.0" depart="29450.00"/> <!-- St. Moritz, Bahnhof -->
        <walk edges="519913257#1 519913257#0 -904728442 -897592613 -120840710 519913265#0 519913265#1" arrivalPos="19.54"/>
    </person>
    <person id="341" depart="28909.27" departPos="random">
        <walk edges="1115015078#3 1115015077#1 -1115015077#2 391952926#1 391952926#2 -391952926#3 -39830434#2 39830434#1 39830434#0 268146940#2 -578147406 1005048062#1 -1005048061#0 1005048061#1 -1005048061#2 -152522410#1 819942940#1 819942940#0 -1005052428#2 1005052428#1 -41595601#5 41595601#4 41595601#3 -41595601#2 41595601#0 819945210#0 819945209 -152517443#2 -152517443#1" busStop="1008.TA.92-1-N-j24-1.88.H.17"/> <!-- St. Moritz, Caspar Badrutt -->
        <ride busStop="1008.TA.92-1-N-j24-1.88.H.23" intended="1350.TA.92-6-I-j24-1.11.H.0" depart="29930.00"/> <!-- St. Moritz Bad, Via San Gian -->
        <ride busStop="1008.TA.92-1-N-j24-1.88.H.25" intended="667.TA.92-6-I-j24-1.3.H.0" depart="30950.00"/> <!-- St. Moritz Bad, Campingplatz -->
        <ride busStop="1008.TA.92-1-N-j24-1.88.H.26" intended="1153.TA.92-1-N-j24-1.89.H.0" depart="31610.00"/> <!-- Silvaplana, Rundella Curtins -->
        <ride busStop="459.TA.92-10-J-j24-1.71.H.28" intended="980.TA.92-2-L-j24-1.15.H.0" depart="31970.00"/> <!-- Sils/Segl Maria, Seglias -->
        <walk edges="-96461182#0 1472605488#1 -56195874#1 -239035118#0 -239035118#1" arrivalPos="2.07"/>
    </person>
    <person id="52" depart="28921.78" departPos="random">
        <walk edges="522706570#1 522706570#0 71759543#3 71759543#2 -71759543#1 71759543#0 1426892796 1426892784 1426892791 1426892783 1426892797 -1024855417 -1426892804 1424064286 -550605628 -550605631 -120829160 120839519#1 1083356001 120829159" busStop="14.TA.96-290-0-j24-1.25.H.11"/> <!-- Promontogno, Posta -->
        <ride busStop="36.TA.96-290-0-j24-1.27.R.12" intended="48.TA.96-290-0-j24-1.17.R.0" depart="30830.00"/> <!-- Maloja, Cad'Maté -->
        <walk edges="977972909 -315159485#0 -315159485#1 315159485#2 315159485#3 315159485#4 -315159485#5 -315159485#6 1068729371#0 -1068729371#1 -1068729371#2 170952349#0 -170952349#1 -977972910" busStop="1136.TA.92-10-J-j24-1.22.R.0"/> <!-- Maloja, Posta -->
        <ride busStop="1136.TA.92-10-J-j24-1.22.R.6" intended="48.TA.96-290-0-j24-1.17.R.0" depart="33050.00"/> <!-- Sils/Segl Maria, Seglias -->
        <walk edges="1472605488#2 1472605488#1 1472605488#0 1201541125 52959697#0 52959697#1 52959697#2 -52959697#3 -56085325#0 -56085325#1 56085325#2 56085325#3 -56085325#4" arrivalPos="34.23"/>
    </person>
    <person id="322" depart="28930.11" departPos="random">
        <walk edges="-25303488#3 25303488#4" busStop="1034.TA.92-2-L-j24-1.15.H.13"/> <!-- St. Moritz, Somplaz -->
        <ride busStop="459.TA.92-10-J-j24-1.71.H.27" intended="61.TA.92-2-L-j24-1.2.H.0" depart="29510.00"/> <!-- Silvaplana, Camping -->
        <ride busStop="16.TA.96-290-0-j24-1.26.H.9" intended="29.TA.96-290-0-j24-1.10.H.0" depart="30410.00"/> <!-- Vicosoprano, Plazza -->
        <walk edges="-890169725#1 -890169723#0 -890169723#1 890169723#2 -1036672006#0 -1036672006#1 391653985#1 1036672007 -391653993#2 -338400631#1 338400631#0 -890158294" arrivalPos="86.94"/>
    </person>
    <person id="210" depart="29010.76" departPos="random">
        <walk edges="56240279#2 -56240279#2 -56240279#4 14014133#3 14014133#2 -66846274 -96461182#2 96461182#1 1472605488#2" busStop="1136.TA.92-10-J-j24-1.22.R.6"/> <!-- Sils/Segl Maria, Seglias -->
        <ride busStop="1.TA.92-4-Q-j24-1.7.R.13" intended="61.TA.96-290-0-j24-1.30.R.0" depart="30230.00"/> <!-- St. Moritz, Bahnhof -->
        <walk edges="519913257#1 519913257#0 916468197 72562096#0 89724876#3 916015460#1 916015460#0 1189801663 -268776830#1 268776830#0 888359128#3 14014151 -1127470773 -232471144#0 -232471144#1 232471144#2 -1318101191#1 -1318101192 189023055#0 189023055#1" arrivalPos="9.26"/>
    </person>
    <person id="555" depart="29078.45" departPos="random">
        <walk edges="-152517446 1005170350 152517715#3" busStop="1679.TA.92-1-N-j24-1.90.R.5"/> <!-- St. Moritz Bad, Via Aruons -->
        <ride busStop="1679.TA.92-1-N-j24-1.90.R.6" intended="2689.TA.92-1-N-j24-1.100.R.0" depart="29690.00"/> <!-- St. Moritz, Schulhausplatz -->
        <walk edges="-819942944#4 819945211 -1467922383 819945210#0 41595601#0 -41595601#2 41595601#3 41595601#4 -41595601#5 -1005052428#1 -1005052428#2 819942942#0 152390930#1 -1005048061#2 1005048061#1 -1005048061#0 1005048062#1 -578147406 -268146940#2 268146940#3 -268146940#4 -204540721#0" arrivalPos="4.48"/>
    </person>
    <person id="85" depart="29122.82" departPos="random">
        <walk edges="-391657350#1 -502426852#0 -502426852#1 502426852#2 -502426852#3 -1083276369#0 -1083276369#1 1083276369#2 -391657356 -502426853 1083276370 -391657351 1006709161 -120829163#0 -120829163#1 1083351550#0" busStop="48.TA.96-290-0-j24-1.17.R.7"/> <!-- Borgonovo, Villaggio -->
        <ride busStop="36.TA.96-290-0-j24-1.27.R.12" intended="48.TA.96-290-0-j24-1.17.R.0" depart="31190.00"/> <!-- Maloja, Cad'Maté -->
        <walk edges="977972909 -315159485#0 -315159485#1 315159485#2 315159485#3 315159485#4 -315159485#5 -315159485#6 1068729371#0 -1068729371#1 -1068729371#2 170952349#0 -170952349#1 -977972910" busStop="1136.TA.92-10-J-j24-1.22.R.0"/> <!-- Maloja, Posta -->
        <ride busStop="2467.TA.92-1-N-j24-1.95.R.3" intended="48.TA.96-290-0-j24-1.17.R.0" depart="33050.00"/> <!-- Silvaplana, Rundella Curtins -->
        <walk edges="1086005533 1136237770 14014136#0 1086005528 -1086005527#0 -147218475#0 147218475#2 -116715858 -116507538#0" arrivalPos="3.64"/>
    </person>
    <person id="406" depart="29139.76" departPos="random">
        <walk edges="1115015079#0 -1115015079#0 1115015079#2 -1115015079#3 268152262#1 -268152262#2 268152262#3 268152262#4 -268152262#5 -268152262#6 1115015078#0 -1115015078#1 -1115015078#2 1115015078#3 1115015077#1 -1115015077#2 391952926#1 391952926#2 -391952926#3 -39830434#2 39830434#1 39830434#0 268146940#2 -578147406 1005048062#1 -1005048061#0 1005048061#1 -1005048061#2 -152522410#1 819942940#1 819942940#0 -1005052428#2 1005052428#1 -41595601#5 41595601#4 41595601#3 -41595601#2 41595601#0 819945210#0 819945209 -152517443#2 -152517443#1" busStop="1008.TA.92-1-N-j24-1.88.H.17"/> <!-- St. Moritz, Caspar Badrutt -->
        <ride busStop="1008.TA.92-1-N-j24-1.88.H.28" intended="1153.TA.92-1-N-j24-1.89.H.0" depart="31130.00"/> <!-- Surlej, Foppas -->
        <walk edges="30957916#1 30957916#2 30957916#3 -30957916#4 918403989#0 918403989#1 25418590#0 30957918#0 30957921#0 30957922" arrivalPos="18.34"/>
    </person>
    <person id="522" depart="29140.80" departPos="random">
        <walk edges="-819942940#3 819942940#2 819942940#1 819942940#0 -1005052428#2 1005052428#1 -41595601#5 41595601#4 41595601#3 -41595601#2 41595601#0 819945210#0 819945209 -152517443#2 152517443#1 -152517443#0 -152517715#4 -152517715#3" busStop="1008.TA.92-1-N-j24-1.88.H.18"/> <!-- St. Moritz Bad, Via Aruons -->
        <ride busStop="1008.TA.92-1-N-j24-1.88.H.20" intended="1350.TA.92-6-I-j24-1.11.H.0" depart="29990.00"/> <!-- St. Moritz Bad, Kath. Kirche -->
        <walk edges="30957915 -1132581922 1441721435 -382202904#4 382202904#3 382202904#2" arrivalPos="0.15"/>
    </person>
    <person id="502" depart="29142.66" departPos="random">
        <walk edges="152337234#0 25412020#0 268146944#0 -268146944#1 -268146940#0 -268146940#1 -268146940#2 39830434#0 39830434#1 -39830434#2 -391952926#3 391952926#2 391952926#1 152336656#0 152336656#2 152336655#0" arrivalPos="0.83"/>
    </person>
    <person id="426" depart="29155.36" departPos="random">
        <walk edges="-189023055#0 189023055#0 -1318101192 -1318101191#1 232471144#2 232471144#1 -232471144#0 -1127470773 14014151 888359128#3 268776830#0 -268776830#1 1189801663 916015460#0 916015460#1 89724876#3 72562096#0 916468197 -904728442 519913261#0 519913261#1" busStop="154.TA.92-1-N-j24-1.77.H.0"/> <!-- St. Moritz, Bahnhof -->
        <ride busStop="1008.TA.92-1-N-j24-1.88.H.15" intended="1240.TA.92-9-H-j24-1.12.R.0" depart="30290.00"/> <!-- St. Moritz, Klinik Gut -->
        <ride busStop="1008.TA.92-1-N-j24-1.88.H.25" intended="667.TA.92-6-I-j24-1.3.H.0" depart="30530.00"/> <!-- St. Moritz Bad, Campingplatz -->
        <ride busStop="1008.TA.92-1-N-j24-1.88.H.26" intended="1153.TA.92-1-N-j24-1.89.H.0" depart="31610.00"/> <!-- Silvaplana, Rundella Curtins -->
        <walk edges="1086005529 14014136#0 1086005528 -1086005527#0 31061886#0 -31061886#1 31061886#2 -31061886#3" arrivalPos="20.06"/>
    </person>
    <person id="299" depart="29182.67" departPos="random">
        <walk edges="89727907 -1219872249#1 1219872249#0 1219872250 -30957907" busStop="1008.TA.92-1-N-j24-1.88.H.25"/> <!-- St. Moritz Bad, Campingplatz -->
        <ride busStop="1008.TA.92-1-N-j24-1.88.H.26" intended="721.TA.92-1-N-j24-1.81.H.0" depart="29810.00"/> <!-- Silvaplana, Rundella Curtins -->
        <ride busStop="16.TA.96-290-0-j24-1.26.H.16" intended="29.TA.96-290-0-j24-1.10.H.0" depart="30410.00"/> <!-- Promontogno, Punt Spizarun -->
        <walk edges="1426892794#3 1426892796 1426892784 1426892791 1426892783 1426892797 -1024855417" arrivalPos="12.50"/>
    </person>
    <person id="67" depart="29217.29" departPos="random">
        <walk edges="-391653986#0 391653986#0 -338400632#3 -1036672004#1 1036672004#0 -391653985#0 -391653985#1 -1036672006#1 -1036672006#0 890169723#2 -890169723#1 -890169723#0 -890169725#1 -890169725#2 -890169725#3 890169725#5 776871491#0 776871491#1 -776871491#2 1083273108#0 -1083273108#1 1083273108#2 -1083273108#3 1069366694#1 1069366694#2 -1069366694#3 1069366694#4 1443580513#0 -1443580513#1 1443580513#2" busStop="36.TA.96-290-0-j24-1.27.R.6"/> <!-- Pranzaira, Albigna -->
        <ride busStop="36.TA.96-290-0-j24-1.27.R.12" intended="48.TA.96-290-0-j24-1.17.R.0" depart="31610.00"/> <!-- Maloja, Cad'Maté -->
        <walk edges="977972909 -315159485#0 -315159485#1 315159485#2 315159485#3 315159485#4 -315159485#5 -315159485#6 1068729371#0 -1068729371#1 -1068729371#2 170952349#0 -170952349#1 -977972910" busStop="1136.TA.92-10-J-j24-1.22.R.0"/> <!-- Maloja, Posta -->
        <ride busStop="2467.TA.92-1-N-j24-1.95.R.3" intended="48.TA.96-290-0-j24-1.17.R.0" depart="33050.00"/> <!-- Silvaplana, Rundella Curtins -->
        <ride busStop="1136.TA.92-10-J-j24-1.22.R.13" intended="1379.TA.92-2-L-j24-1.27.R.0" depart="34430.00"/> <!-- Champfèr, Guardalej -->
        <walk edges="1068735330#1 1068735330#0 1068735329#2 430606782" arrivalPos="3.18"/>
    </person>
    <person id="388" depart="29225.10" departPos="random">
        <walk edges="1189801663 916015460#0 916015460#1 89724876#3 72562096#0 916468197 -904728442 -897592613 519913263#0 519913263#1" busStop="1008.TA.92-1-N-j24-1.88.H.14"/> <!-- St. Moritz, Bahnhof -->
        <ride busStop="459.TA.92-10-J-j24-1.71.H.29" intended="29.TA.96-290-0-j24-1.10.H.0" depart="29690.00"/> <!-- Sils/Segl Maria, Posta -->
        <walk edges="-894905824 -256959704#0 -209755663#4 209755663#3 209755663#2 -209755663#0 1317098557 59637812#0 59637812#1 -59637812#2 -59637812#3 59637812#4 -59637812#5 59637812#7 -59637812#8 59637812#9 -59637812#10 -1086010084 -1086010083 -175833044#1 175833044#0 175833041 241932762#4 241932762#3 -241932762#2 241932762#1 241932762#0 -426408082#1 426408082#0 -426408076#5 426408076#4 426408076#3 -426408076#2 -426408076#1" arrivalPos="97.30"/>
    </person>
    <person id="636" depart="29330.66" departPos="random">
        <walk edges="1005048061#2 -1005048061#2 -152522410#1 819942940#1 819942940#0 -1005052428#2 1005052428#1 -41595601#5 41595601#4 41595601#3 -41595601#2 41595601#0 819945210#0 -1467922383 819945211 -819942944#4" busStop="1679.TA.92-1-N-j24-1.90.R.6"/> <!-- St. Moritz, Schulhausplatz -->
        <ride busStop="1008.TA.92-1-N-j24-1.88.H.14" intended="2689.TA.92-1-N-j24-1.100.R.0" depart="29930.00"/> <!-- St. Moritz, Bahnhof -->
        <walk edges="519913263#1 519913263#0 -120840710 519913265#0 519913265#1" arrivalPos="7.25"/>
    </person>
    <person id="351" depart="29417.73" departPos="random">
        <walk edges="-1428300394 1428300394 -196520689#2 -196520689#1 196520689#0 740109140 -188730894#0 -188730894#1 69347929 191253662#0 191253662#1 -191253662#2 191253662#3 -191253662#4 191253662#5 191253662#6 -191253662#7 -1068735332#3 30957906 -1493002173 -30952515#1 -30952515#0" busStop="2386.TA.92-1-N-j24-1.93.R.1"/> <!-- Champfèr, Schulhaus -->
        <ride busStop="1008.TA.92-1-N-j24-1.88.H.25" intended="3062.TA.92-6-I-j24-1.22.R.0" depart="31490.00"/> <!-- St. Moritz Bad, Campingplatz -->
        <ride busStop="1008.TA.92-1-N-j24-1.88.H.26" intended="1153.TA.92-1-N-j24-1.89.H.0" depart="31610.00"/> <!-- Silvaplana, Rundella Curtins -->
        <ride busStop="459.TA.92-10-J-j24-1.71.H.28" intended="980.TA.92-2-L-j24-1.15.H.0" depart="31970.00"/> <!-- Sils/Segl Maria, Seglias -->
        <walk edges="-96461182#0 1472605488#1 1472605488#0 -150277078#5 150277078#4 -150277078#3 -150277078#2 150277078#1 256959702#3 -256959702#2 256959702#1" arrivalPos="1.61"/>
    </person>
    <person id="593" depart="29474.64" departPos="random">
        <walk edges="1189801664 89724876#5 916468198#2 916468198#1 916468197 -904728442 -897592613 -120840710 519913265#0 519913265#1" arrivalPos="24.01"/>
    </person>
    <person id="204" depart="29493.28" departPos="random">
        <walk edges="56085325#0 -52959697#3 -52959697#2 52959697#1 52959697#0 1201541125 -1472605488#0 1472605488#1 1472605488#2" busStop="1136.TA.92-10-J-j24-1.22.R.6"/> <!-- Sils/Segl Maria, Seglias -->
        <ride busStop="2467.TA.92-1-N-j24-1.95.R.3" intended="61.TA.96-290-0-j24-1.30.R.0" depart="30230.00"/> <!-- Silvaplana, Rundella Curtins -->
        <ride busStop="1136.TA.92-10-J-j24-1.22.R.13" intended="1356.TA.92-2-L-j24-1.27.R.0" depart="30830.00"/> <!-- Champfèr, Guardalej -->
        <walk edges="1068735330#1 1068735330#0 18888058 72562012" arrivalPos="203.38"/>
    </person>
    <person id="486" depart="29555.92" departPos="random">
        <walk edges="-1466236176 96461180#6 -96461180#5" busStop="1128.TA.92-9-H-j24-1.12.R.0"/> <!-- St. Moritz Bad, Youth Hostel -->
        <ride busStop="1008.TA.92-1-N-j24-1.88.H.23" intended="1240.TA.92-9-H-j24-1.12.R.0" depart="29690.00"/> <!-- St. Moritz Bad, Via San Gian -->
        <walk edges="-170952324#1 170952324#0 19724261 769993301#0 769993301#1 769993301#2 268146971#0 -268146971#1 -268146971#2" arrivalPos="56.15"/>
    </person>
    <person id="497" depart="29600.84" departPos="random">
        <walk edges="88723957#0 -96461180#4 96461180#3 -96461180#1 96461180#0 -819945220#2 819945220#1 819945220#0 120840708 -30957915" busStop="1679.TA.92-1-N-j24-1.90.R.3"/> <!-- St. Moritz Bad, Kath. Kirche -->
        <ride busStop="1679.TA.92-1-N-j24-1.90.R.6" intended="3068.TA.92-6-I-j24-1.22.R.0" depart="30170.00"/> <!-- St. Moritz, Schulhausplatz -->
        <walk edges="-819942944#4 819942944#3 819942944#2 -152520535 1068735337 819942945#2 -819942945#0 1068735342#1 1068735342#0 -47578286 -120840712#0" arrivalPos="3.46"/>
    </person>
    <person id="640" depart="29653.00" departPos="random">
        <walk edges="501346486 -89727905#1 -89727905#0 -1219872249#1 1219872249#0 1219872250 30957907" busStop="2467.TA.92-1-N-j24-1.95.R.4"/> <!-- St. Moritz Bad, Campingplatz -->
        <ride busStop="1.TA.92-4-Q-j24-1.7.R.13" intended="61.TA.96-290-0-j24-1.30.R.0" depart="30890.00"/> <!-- St. Moritz, Bahnhof -->
        <walk edges="519913257#1 519913257#0 -904728442 519913261#0 519913261#1" arrivalPos="14.54"/>
    </person>
    <person id="545" depart="29663.89" departPos="random">
        <walk edges="235361066 1219872251 30957907 26167898#0" arrivalPos="5.99"/>
    </person>
    <person id="224" depart="29670.35" departPos="random">
        <walk edges="-1050853680 -25418588#1" busStop="2467.TA.92-1-N-j24-1.95.R.2"/> <!-- Surlej, Punt -->
        <ride busStop="459.TA.92-10-J-j24-1.71.H.27" intended="41.TA.92-20-E-j24-1.2.R.0" depart="30050.00"/> <!-- Silvaplana, Camping -->
        <ride busStop="459.TA.92-10-J-j24-1.71.H.33" intended="29.TA.96-290-0-j24-1.10.H.0" depart="30410.00"/> <!-- Maloja, Capolago -->
        <walk edges="315159496#1 -890627011" arrivalPos="39.99"/>
    </person>
    <person id="620" depart="29682.65" departPos="random">
        <walk edges="1068735342#0 -47578286 120840712#0 268146935#0 894516575 903495401 519913259 897620166 519913261#1" arrivalPos="26.62"/>
    </person>
    <person id="607" depart="29800.58" departPos="random">
        <walk edges="926207664 -926207664 -1068735336#2 -1068735336#1 1068735336#0 25303490 819945209 -1467922383 819945211 -819942944#4 819942944#3 819942944#2 -152520535 1068735337 819942945#2 -819942945#0 1068735342#1 1068735342#0 -47578286 120840712#0 903531446 120840710 897592613 519913261#0 519913261#1" arrivalPos="23.37"/>
    </person>
    <person id="242" depart="29880.92" departPos="random">
        <walk edges="1136246853 1430507283 -186141915#1 186141915#0 -31061889#4 -31061889#3 31061889#2 31061889#0 31061888#1 116715858 147218475#2 -147218475#0 1086005527#0 1086005528 14014136#0 1086005529" busStop="1008.TA.92-1-N-j24-1.88.H.26"/> <!-- Silvaplana, Rundella Curtins -->
        <ride busStop="459.TA.92-10-J-j24-1.71.H.31" intended="29.TA.96-290-0-j24-1.10.H.0" depart="30410.00"/> <!-- Sils/Segl Baselgia,San Lurench -->
        <walk edges="-56240189#0 56240189#2 -56240189#3 -1212211274" arrivalPos="14.14"/>
    </person>
    <person id="127" depart="29903.27" departPos="random">
        <walk edges="1104475589#1 1104475589#0 123067865#0 123067865#1 -123067865#2 522703204 -171771449#0 -171771449#2 -171771449#3 -171771430 520821161#1 520821161#0 -1083356000 120829159" busStop="14.TA.96-290-0-j24-1.25.H.11"/> <!-- Promontogno, Posta -->
        <ride busStop="36.TA.96-290-0-j24-1.27.R.12" intended="48.TA.96-290-0-j24-1.17.R.0" depart="30830.00"/> <!-- Maloja, Cad'Maté -->
        <walk edges="977972909 -315159485#0 -315159485#1 315159485#2 315159485#3 315159485#4 -315159485#5 -315159485#6 1068729371#0 -1068729371#1 -1068729371#2 170952349#0 -170952349#1 -977972910" busStop="1136.TA.92-10-J-j24-1.22.R.0"/> <!-- Maloja, Posta -->
        <ride busStop="1008.TA.92-1-N-j24-1.88.H.14" intended="48.TA.96-290-0-j24-1.17.R.0" depart="33050.00"/> <!-- St. Moritz, Bahnhof -->
        <walk edges="519913263#1 519913263#0 897592613 519913261#0 519913261#1" arrivalPos="11.24"/>
    </person>
    <person id="376" depart="29914.89" departPos="random">
        <walk edges="1115020156 1005170350 -152517715#3" busStop="1008.TA.92-1-N-j24-1.88.H.18"/> <!-- St. Moritz Bad, Via Aruons -->
        <ride busStop="1008.TA.92-1-N-j24-1.88.H.23" intended="1350.TA.92-6-I-j24-1.11.H.0" depart="29990.00"/> <!-- St. Moritz Bad, Via San Gian -->
        <ride busStop="1008.TA.92-1-N-j24-1.88.H.25" intended="667.TA.92-6-I-j24-1.3.H.0" depart="30950.00"/> <!-- St. Moritz Bad, Campingplatz -->
        <ride busStop="1008.TA.92-1-N-j24-1.88.H.26" intended="1153.TA.92-1-N-j24-1.89.H.0" depart="31610.00"/> <!-- Silvaplana, Rundella Curtins -->
        <ride busStop="459.TA.92-10-J-j24-1.71.H.29" intended="980.TA.92-2-L-j24-1.15.H.0" depart="31970.00"/> <!-- Sils/Segl Maria, Posta -->
        <walk edges="-894905824 -256959704#0 -209755663#4 209755663#3 209755663#2 -209755663#0 1317098557 59637812#0 59637812#1 -59637812#2 -59637812#3 59637812#4 -59637812#5 59637812#7 -59637812#8 59637812#9 -59637812#10 -1086010084 -1086010083 -175833044#1 175833044#0" arrivalPos="193.67"/>
    </person>
    <person id="308" depart="29919.15" departPos="random">
        <walk edges="519913257#0 -904728442 519913261#0 519913261#1" busStop="154.TA.92-1-N-j24-1.77.H.0"/> <!-- St. Moritz, Bahnhof -->
        <ride busStop="1008.TA.92-1-N-j24-1.88.H.15" intended="1240.TA.92-9-H-j24-1.12.R.0" depart="30290.00"/> <!-- St. Moritz, Klinik Gut -->
        <ride busStop="1008.TA.92-1-N-j24-1.88.H.25" intended="667.TA.92-6-I-j24-1.3.H.0" depart="30530.00"/> <!-- St. Moritz Bad, Campingplatz -->
        <ride busStop="1008.TA.92-1-N-j24-1.88.H.26" intended="1153.TA.92-1-N-j24-1.89.H.0" depart="31610.00"/> <!-- Silvaplana, Rundella Curtins -->
        <ride busStop="459.TA.92-10-J-j24-1.71.H.33" intended="980.TA.92-2-L-j24-1.15.H.0" depart="31970.00"/> <!-- Maloja, Capolago -->
        <walk edges="315159496#1 315159496#0 -501346487 208826840#2 70702070#0 -677287119#0 175833048 -307930214 1068735315#1 -1068735315#0 -1085975993 349887484 507648839 -175833050 349888201#1" arrivalPos="69.51"/>
    </person>
    <person id="316" depart="29969.09" departPos="random">
        <walk edges="-219034871#1 219034871#1 219034871#0 -170952324#3 170952324#2 -170952324#1" busStop="1008.TA.92-1-N-j24-1.88.H.23"/> <!-- St. Moritz Bad, Via San Gian -->
        <ride busStop="1008.TA.92-1-N-j24-1.88.H.25" intended="667.TA.92-6-I-j24-1.3.H.0" depart="30950.00"/> <!-- St. Moritz Bad, Campingplatz -->
        <ride busStop="1008.TA.92-1-N-j24-1.88.H.26" intended="1153.TA.92-1-N-j24-1.89.H.0" depart="31610.00"/> <!-- Silvaplana, Rundella Curtins -->
        <ride busStop="459.TA.92-10-J-j24-1.71.H.34" intended="980.TA.92-2-L-j24-1.15.H.0" depart="31970.00"/> <!-- Maloja, Posta -->
        <walk edges="894576903 -170952349#1 170952349#0" arrivalPos="2.01"/>
    </person>
    <person id="291" depart="29979.20" departPos="random">
        <walk edges="188730896#2 188730896#1 188730896#0 69347933#1 69347933#0 1068735334 154770319#4 -154770319#3 154770319#2 154770319#1 154770319#0 -25303487#4" busStop="1008.TA.92-1-N-j24-1.88.H.19"/> <!-- St. Moritz Bad, Via Salet -->
        <ride busStop="1008.TA.92-1-N-j24-1.88.H.26" intended="1153.TA.92-1-N-j24-1.89.H.0" depart="31250.00"/> <!-- Silvaplana, Rundella Curtins -->
        <ride busStop="459.TA.92-10-J-j24-1.71.H.34" intended="980.TA.92-2-L-j24-1.15.H.0" depart="31970.00"/> <!-- Maloja, Posta -->
        <walk edges="894576903 -170952349#1 170952349#0 1068729371#2 -1068729371#1 1068729371#0 315159485#6 -315159485#5 -315159485#4 315159485#3 -315159485#2 -315159485#1 315159485#0 -977972909 -501346489#2" busStop="16.TA.96-290-0-j24-1.26.H.1"/> <!-- Maloja, Cad'Maté -->
        <ride busStop="16.TA.96-290-0-j24-1.26.H.14" intended="21.TA.96-290-0-j24-1.10.H.0" depart="35270.00"/> <!-- Stampa, Palù -->
        <walk edges="-502426851#0 391657349 171771397 -375911465#1 171771403#0 -171771403#1 1374806603 -208216576#0 208216576#1 208216576#2" arrivalPos="4.48"/>
    </person>
    <person id="69" depart="30029.13" departPos="random">
        <walk edges="-1083273108#3 1069366694#1 1069366694#2 -1069366694#3 1069366694#4 1443580513#0 -1443580513#1 1443580513#2" busStop="36.TA.96-290-0-j24-1.27.R.6"/> <!-- Pranzaira, Albigna -->
        <ride busStop="36.TA.96-290-0-j24-1.27.R.12" intended="48.TA.96-290-0-j24-1.17.R.0" depart="31610.00"/> <!-- Maloja, Cad'Maté -->
        <walk edges="977972909 -315159485#0 -315159485#1 315159485#2 315159485#3 315159485#4 -315159485#5 -315159485#6 1068729371#0 -1068729371#1 -1068729371#2 170952349#0 -170952349#1 -977972910" busStop="1136.TA.92-10-J-j24-1.22.R.0"/> <!-- Maloja, Posta -->
        <ride busStop="2467.TA.92-1-N-j24-1.95.R.3" intended="48.TA.96-290-0-j24-1.17.R.0" depart="33050.00"/> <!-- Silvaplana, Rundella Curtins -->
        <walk edges="1086005533 1136237770 14014136#0 1086005528 -1086005527#0 31061886#0 -31061886#1 31061886#2 31061886#3" arrivalPos="23.75"/>
    </person>
    <person id="206" depart="30036.36" departPos="random">
        <walk edges="175833044#1 -175833044#1 -1086010083 -1086010084 -59637812#10 59637812#9 -59637812#8 59637812#7 -59637812#5 59637812#4 -59637812#3 -59637812#2 59637812#1 59637812#0 -58413640#0 -209755663#0 209755663#2 209755663#3 -209755663#4 -96461185 1068735318#0 -1068735318#1 -1068735318#2 -256959702#0 -256959702#1 -256959702#2 -150277078#0 150277078#1 -150277078#2 -150277078#3 150277078#4 -150277078#5 -1472605488#0 1472605488#1 1472605488#2" busStop="1136.TA.92-10-J-j24-1.22.R.6"/> <!-- Sils/Segl Maria, Seglias -->
        <ride busStop="1136.TA.92-10-J-j24-1.22.R.23" intended="2203.TA.92-2-L-j24-1.38.R.0" depart="32030.00"/> <!-- St. Moritz, Kulm -->
        <walk edges="268146940#6 268146940#5 -268146940#4 268146940#3 39830434#0 39830434#1 -39830434#2 -391952926#3 391952926#2 391952926#1 -1115015077#2 1115015077#1 1115015078#3 -1115015078#2 -1115015078#1 1115015078#0 -268152262#6 -268152262#5 268152262#4 268152262#3 -268152262#2 268152262#1 -1115015079#3 1115015079#2 -1115015079#0 1115015083 -1041492060#1" arrivalPos="2.91"/>
    </person>
    <person id="62" depart="30056.12" departPos="random">
        <walk edges="1083276371#0 1083351550#1 1083351550#0" busStop="48.TA.96-290-0-j24-1.17.R.7"/> <!-- Borgonovo, Villaggio -->
        <ride busStop="36.TA.96-290-0-j24-1.27.R.12" intended="48.TA.96-290-0-j24-1.17.R.0" depart="31190.00"/> <!-- Maloja, Cad'Maté -->
        <walk edges="977972909 -315159485#0 -315159485#1 315159485#2 315159485#3 315159485#4 -315159485#5 -315159485#6 1068729371#0 -1068729371#1 -1068729371#2 170952349#0 -170952349#1 -977972910" busStop="1136.TA.92-10-J-j24-1.22.R.0"/> <!-- Maloja, Posta -->
        <ride busStop="1136.TA.92-10-J-j24-1.22.R.5" intended="48.TA.96-290-0-j24-1.17.R.0" depart="33050.00"/> <!-- Sils/Segl Maria, Posta -->
        <walk edges="209755663#3 209755663#2 -209755663#0 1317098557 59637812#0 59637812#1 -59637812#2 -59637812#3 59637812#4 -59637812#5 59637812#7 -59637812#8 59637812#9 -59637812#10 -1086010084" arrivalPos="24.36"/>
    </person>
    <person id="215" depart="30098.74" departPos="random">
        <walk edges="241932758 198123924#1 198123924#0 426408073 -175833043 -175833047#2 -175833047#1 175833047#0 175833041 175833044#0 -175833044#1 -1086010083 -1086010084 -59637812#10 59637812#9 -59637812#8 59637812#7 -59637812#5 59637812#4 -59637812#3 -59637812#2 59637812#1 59637812#0 -58413640#0 -209755663#0 209755663#2 209755663#3 -209755663#4 -96461185 1068735318#0 -1068735318#1 -1068735318#2 -256959702#0 -256959702#1 -256959702#2 -150277078#0 150277078#1 -150277078#2 -150277078#3 150277078#4 -150277078#5 -1472605488#0 1472605488#1 1472605488#2" busStop="1136.TA.92-10-J-j24-1.22.R.6"/> <!-- Sils/Segl Maria, Seglias -->
        <ride busStop="1008.TA.92-1-N-j24-1.88.H.14" intended="48.TA.96-290-0-j24-1.17.R.0" depart="33830.00"/> <!-- St. Moritz, Bahnhof -->
        <walk edges="519913263#1 519913263#0 897592613 519913261#0 519913261#1" arrivalPos="0.85"/>
    </person>
    <person id="123" depart="30159.91" departPos="random">
        <walk edges="501346488#1 -501346488#0 -315159494#2 315159494#1 -1136215938 315159496#3 315159496#2 315159496#1 -315159496#0" busStop="1136.TA.92-10-J-j24-1.22.R.1"/> <!-- Maloja, Capolago -->
        <ride busStop="1136.TA.92-10-J-j24-1.22.R.22" intended="2203.TA.92-2-L-j24-1.38.R.0" depart="31310.00"/> <!-- St. Moritz, Schulhausplatz -->
        <walk edges="894576901#0 894576901#1 894576901#2 152337234#0 -152337234#1 -152516779#0 60103241" arrivalPos="75.52"/>
    </person>
    <person id="118" depart="30199.14" departPos="random">
        <walk edges="1104477696 472298258 1426892779 1426892783 1426892797 -1024855417 -1426892804 1424064286 -550605628 -550605631 -120829160 120839519#1 1083356001 120829159" busStop="14.TA.96-290-0-j24-1.25.H.11"/> <!-- Promontogno, Posta -->
        <ride busStop="36.TA.96-290-0-j24-1.27.R.12" intended="48.TA.96-290-0-j24-1.17.R.0" depart="30830.00"/> <!-- Maloja, Cad'Maté -->