<?xml version="1.0" encoding="UTF-8"?>

<!-- generated by Eclipse SUMO duarouter Version 1.12.0
<configuration xmlns:xsi="http://www.w3.org/2001/XMLSchema-instance" xsi:noNamespaceSchemaLocation="http://sumo.dlr.de/xsd/duarouterConfiguration.xsd">

    <input>
        <net-file value="D:\Dokumente\sumo\maloja\simple.net.xml"/>
        <additional-files value="D:\Dokumente\sumo\maloja\taz_maloja_simple.add.xml,D:\Dokumente\sumo\maloja\03_bus\virtualstop.add.xml,D:\Dokumente\sumo\maloja\03_bus\02_August\vtypes.xml,D:\Dokumente\sumo\maloja\03_bus\02_August\gtfs_pt_stops.add.xml"/>
        <route-files value="D:\Dokumente\sumo\maloja\05_seniors\persontrips_maloja_seniors_modded_public_taxi.xml,D:\Dokumente\sumo\maloja\03_bus\02_August\gtfs_pt_vehicles.add.xml"/>
    </input>

    <output>
        <output-file value="D:\Dokumente\sumo\maloja\05_seniors\persontrips_maloja_seniors_resolved_summer_bus_taxi.rou.xml"/>
        <alternatives-output value="D:\Dokumente\sumo\maloja\05_seniors\persontrips_maloja_seniors_resolved_summer_bus_taxi.rou.alt.xml"/>
    </output>

    <processing>
        <persontrip.transfer.taxi-walk value="ptStops"/>
        <persontrip.transfer.walk-taxi value="ptStops"/>
    </processing>

    <report>
        <verbose value="true"/>
    </report>

</configuration>
-->

<routes xmlns:xsi="http://www.w3.org/2001/XMLSchema-instance" xsi:noNamespaceSchemaLocation="http://sumo.dlr.de/xsd/routes_file.xsd">
    <person id="606" depart="28833.54" departPos="random">
        <ride from="-30957911" to="519913265#1" arrivalPos="10.00" lines="taxi"/>
        <walk edges="519913265#1" arrivalPos="24.43"/>
    </person>
    <person id="167" depart="28888.60" departPos="random">
        <ride from="-501346489#1" to="519913265#1" arrivalPos="10.00" lines="taxi"/>
        <walk edges="519913265#1" arrivalPos="19.54"/>
    </person>
    <person id="341" depart="28909.27" departPos="random">
        <ride from="1115015078#3" to="-96461182#0" arrivalPos="7.50" lines="taxi"/>
        <walk edges="-96461182#0 1472605488#1 -56195874#1 -239035118#0 -239035118#1" arrivalPos="2.07"/>
    </person>
    <person id="52" depart="28921.78" departPos="random">
        <ride from="522706570#1" to="-96461182#0" arrivalPos="7.50" lines="taxi"/>
        <walk edges="-96461182#0 1472605488#1 1472605488#0 1201541125 52959697#0 52959697#1 52959697#2 -52959697#3 56085325#0 -56085325#1 56085325#2 56085325#3 -56085325#4" arrivalPos="34.23"/>
    </person>
    <person id="322" depart="28930.11" departPos="random">
        <ride from="-25303488#3" to="890169725#1" arrivalPos="3.09" lines="taxi"/>
        <walk edges="890169725#1 -890169723#0 -890169723#1 890169723#2 -1036672006#0 -1036672006#1 391653985#1 1036672007 -391653993#2 -338400631#1 338400631#0 -890158294" arrivalPos="86.94"/>
    </person>
    <person id="210" depart="29010.76" departPos="random">
        <ride from="56240279#2" to="519913257#1" arrivalPos="15.00" lines="taxi"/>
        <walk edges="519913257#1 519913257#0 916468197 72562096#0 89724876#3 916015460#1 916015460#0 1189801663 -268776830#1 268776830#0 888359128#3 14014151 -1127470773 -232471144#0 -232471144#1 232471144#2 -1318101191#1 -1318101192 189023055#0 189023055#1" arrivalPos="9.26"/>
    </person>
    <person id="555" depart="29078.45" departPos="random">
        <ride from="-152517446" to="268146940#6" arrivalPos="7.77" lines="taxi"/>
        <walk edges="268146940#6 268146940#5 -204540721#0" arrivalPos="4.48"/>
    </person>
    <person id="85" depart="29122.82" departPos="random">
        <ride from="-391657350#1" to="18887954#0" arrivalPos="6.62" lines="taxi"/>
        <walk edges="18887954#0 -116507538#0" arrivalPos="3.64"/>
    </person>
    <person id="406" depart="29139.76" departPos="random">
        <ride from="1115015079#0" to="25418590#1" arrivalPos="2.00" lines="taxi"/>
        <walk edges="25418590#1 30957918#0 30957921#0 30957922" arrivalPos="18.34"/>
    </person>
    <person id="522" depart="29140.80" departPos="random">
        <ride from="-819942940#3" to="-170952322#1" arrivalPos="26.09" lines="taxi"/>
        <walk edges="-170952322#1 382202904#0 -382202904#1 382202904#2" arrivalPos="0.15"/>
    </person>
    <person id="426" depart="29155.36" departPos="random">
        <ride from="-189023055#0" to="1086005529" arrivalPos="102.22" lines="taxi"/>
        <walk edges="1086005529 14014136#0 1086005528 -1086005527#0 31061886#0 -31061886#1 31061886#2 -31061886#3" arrivalPos="0.18"/>
    </person>
    <person id="299" depart="29182.67" departPos="random">
        <ride from="89727907" to="1426892794#3" arrivalPos="11.14" lines="taxi"/>
        <walk edges="1426892794#3 1426892796 1426892784 1426892791 1426892783 1426892797 -1024855417" arrivalPos="18.05"/>
    </person>
    <person id="67" depart="29217.29" departPos="random">
        <ride from="-391653986#0" to="1068735330#1" arrivalPos="7.04" lines="taxi"/>
        <walk edges="1068735330#1 1068735330#0 1068735329#2 430606782" arrivalPos="3.28"/>
    </person>
    <person id="388" depart="29225.10" departPos="random">
        <ride from="1189801663" to="209755663#3" arrivalPos="2.55" lines="taxi"/>
        <walk edges="209755663#3 209755663#2 -209755663#0 1317098557 59637812#0 59637812#1 -59637812#2 -59637812#3 59637812#4 -59637812#5 59637812#7 -59637812#8 59637812#9 -59637812#10 -1086010084 -1086010083 -175833044#1 175833044#0 175833041 241932762#4 241932762#3 -241932762#2 241932762#1 241932762#0 -426408082#1 426408082#0 -426408076#5 426408076#4 426408076#3 -426408076#2 -426408076#1" arrivalPos="77.68"/>
    </person>
    <person id="636" depart="29330.66" departPos="random">
        <ride from="1005048061#2" to="519913265#1" arrivalPos="10.00" lines="taxi"/>
        <walk edges="519913265#1" arrivalPos="15.53"/>
    </person>
    <person id="351" depart="29417.73" departPos="random">
        <ride from="-1428300394" to="-894905824" arrivalPos="13.28" lines="taxi"/>
        <walk edges="-894905824 1068735318#0 -1068735318#1 -1068735318#2 -256959702#0 256959702#1" arrivalPos="7.08"/>
    </person>
    <person id="204" depart="29493.28" departPos="random">
        <ride from="56085325#0" to="1068735330#1" arrivalPos="7.04" lines="taxi"/>
        <walk edges="1068735330#1 1068735330#0 18888058 72562012" arrivalPos="38.06"/>
    </person>
    <person id="486" depart="29555.92" departPos="random">
        <ride from="-1466236176" to="-268146971#2" arrivalPos="37.39" lines="taxi"/>
        <walk edges="-268146971#2" arrivalPos="71.92"/>
    </person>
    <person id="497" depart="29600.84" departPos="random">
        <ride from="88723957#0" to="519913265#1" arrivalPos="10.00" lines="taxi"/>
        <walk edges="519913265#1 519913265#0 -903531446 -120840712#0" arrivalPos="24.08"/>
    </person>
    <person id="640" depart="29653.00" departPos="random">
        <ride from="501346486" to="519913261#1" arrivalPos="15.00" lines="taxi"/>
        <walk edges="519913261#1" arrivalPos="19.38"/>
    </person>
    <person id="224" depart="29670.35" departPos="random">
        <ride from="-1050853680" to="-315159496#0" arrivalPos="2.10" lines="taxi"/>
        <walk edges="-315159496#0 -890627011" arrivalPos="2.92"/>
    </person>
    <person id="242" depart="29880.92" departPos="random">
        <ride from="1136246853" to="56240189#4" arrivalPos="23.74" lines="taxi"/>
        <walk edges="56240189#4 -1212211274" arrivalPos="8.17"/>
    </person>
    <person id="127" depart="29903.27" departPos="random">
        <ride from="1104475589#1" to="519913261#1" arrivalPos="15.00" lines="taxi"/>
        <walk edges="519913261#1" arrivalPos="8.71"/>
    </person>
    <person id="376" depart="29914.89" departPos="random">
        <ride from="1115020156" to="209755663#3" arrivalPos="2.55" lines="taxi"/>
        <walk edges="209755663#3 209755663#2 -209755663#0 1317098557 59637812#0 59637812#1 -59637812#2 -59637812#3 59637812#4 -59637812#5 59637812#7 -59637812#8 59637812#9 -59637812#10 -1086010084 -1086010083 -175833044#1 175833044#0" arrivalPos="225.39"/>
    </person>
    <person id="308" depart="29919.15" departPos="random">
        <ride from="519913257#0" to="175833048" arrivalPos="84.81" lines="taxi"/>
        <walk edges="175833048 -307930214 1068735315#1 -1068735315#0 -1085975993 349887484 507648839 -175833050 349888201#1" arrivalPos="275.72"/>
    </person>
    <person id="316" depart="29969.09" departPos="random">
        <ride from="-219034871#1" to="-977972910" arrivalPos="24.86" lines="taxi"/>
        <walk edges="-977972910 -170952349#1 170952349#0" arrivalPos="51.16"/>
    </person>
    <person id="291" depart="29979.20" departPos="random">
        <ride from="188730896#2" to="-502426851#0" arrivalPos="11.18" lines="taxi"/>
        <walk edges="-502426851#0 391657349 171771397 -375911465#1 171771403#0 -171771403#1 1374806603 -208216576#0 208216576#1 208216576#2" arrivalPos="13.18"/>
    </person>
    <person id="69" depart="30029.13" departPos="random">
        <ride from="-1083273108#3" to="1086005533" arrivalPos="30.56" lines="taxi"/>
        <walk edges="1086005533 1136237770 14014136#0 1086005528 -1086005527#0 31061886#0 -31061886#1 31061886#2 31061886#3" arrivalPos="12.32"/>
    </person>
    <person id="206" depart="30036.36" departPos="random">
        <ride from="175833044#1" to="-1113164891" arrivalPos="19.64" lines="taxi"/>
        <walk edges="-1113164891 -1041492060#1" arrivalPos="9.96"/>
    </person>
    <person id="62" depart="30056.12" departPos="random">
        <ride from="1083276371#0" to="209755663#3" arrivalPos="2.55" lines="taxi"/>
        <walk edges="209755663#3 209755663#2 -209755663#0 1317098557 59637812#0 59637812#1 -59637812#2 -59637812#3 59637812#4 -59637812#5 59637812#7 -59637812#8 59637812#9 -59637812#10 -1086010084" arrivalPos="6.03"/>
    </person>
    <person id="215" depart="30098.74" departPos="random">
        <ride from="241932758" to="519913261#1" arrivalPos="15.00" lines="taxi"/>
        <walk edges="519913261#1" arrivalPos="0.92"/>
    </person>
    <person id="123" depart="30159.91" departPos="random">
        <ride from="501346488#1" to="25412019" arrivalPos="14.90" lines="taxi"/>
        <walk edges="25412019 152337234#0 -152337234#1 -152516779#0 60103241" arrivalPos="33.27"/>
    </person>
    <person id="118" depart="30199.14" departPos="random">
        <ride from="1104477696" to="170952324#1" arrivalPos="7.50" lines="taxi"/>
        <walk edges="170952324#1 170952324#0 19724261 769993301#0 915198669 915198670" arrivalPos="21.94"/>
    </person>
    <person id="136" depart="30205.95" departPos="random">
        <ride from="502426856#0" to="519913265#1" arrivalPos="10.00" lines="taxi"/>
        <walk edges="519913265#1" arrivalPos="4.36"/>
    </person>
    <person id="407" depart="30301.16" departPos="random">
        <ride from="-916468197" to="30952515#0" arrivalPos="5.29" lines="taxi"/>
        <walk edges="30952515#0 72562019#0 -72562019#1 72562019#2 72562019#3 72562019#4 1435131955#1 -1435131955#2 -894841757 -209049898 209049898" arrivalPos="0.19"/>
    </person>
    <person id="491" depart="30351.54" departPos="random">
        <ride from="152522410#1" to="519913257#1" arrivalPos="15.00" lines="taxi"/>
        <walk edges="519913257#1 519913257#0 916468197 72562096#0 89724876#3 916015460#1 916015460#0 1189801663 -268776830#1 268776830#0 888359128#3 888359128#4 -1189801662 -888359127" arrivalPos="38.34"/>
    </person>
    <person id="330" depart="30363.96" departPos="random">
        <ride from="543256263#1" to="391661586" arrivalPos="62.32" lines="taxi"/>
        <walk edges="391661586 128157724#0 128157724#1 -1162541061#0 1162541061#1 -1162541061#2 -1162541061#3 -186947410#0" arrivalPos="67.79"/>
    </person>
    <person id="144" depart="30393.62" departPos="random">
        <ride from="123067865#2" to="519913263#1" arrivalPos="15.00" lines="taxi"/>
        <walk edges="519913263#1" arrivalPos="9.39"/>
    </person>
    <person id="369" depart="30414.82" departPos="random">
        <ride from="26167684#1" to="56240189#7" arrivalPos="7.50" lines="taxi"/>
        <walk edges="56240189#7 -56240189#8 56240189#9 -973459742#0" arrivalPos="2.84"/>
    </person>
    <person id="186" depart="30452.57" departPos="random">
        <ride from="56240189#3" to="-69218976#0" arrivalPos="93.33" lines="taxi"/>
        <walk edges="-69218976#0 69219145" arrivalPos="17.94"/>
    </person>
    <person id="263" depart="30534.61" departPos="random">
        <ride from="30957933" to="30957907" arrivalPos="553.86" lines="taxi"/>
        <walk edges="30957907" arrivalPos="256.51"/>
    </person>
    <person id="391" depart="30535.93" departPos="random">
        <ride from="188730896#6" to="209755663#3" arrivalPos="2.55" lines="taxi"/>
        <walk edges="209755663#3 209755663#2 -209755663#0 1317098557 59637812#0 59637812#1 -59637812#2 -59637812#3 59637812#4 -59637812#5 59637812#7 -59637812#8 59637812#9 -59637812#10 -1086010084 -1086010083 -175833044#1 175833044#0 175833041 241932762#4 241932762#3 -241932762#2 241932762#1 241932762#0 -426408082#1 426408082#0 76129128#0 -76129128#1" arrivalPos="90.50"/>
    </person>
    <person id="24" depart="30552.65" departPos="random">
        <ride from="-391653980#2" to="209755663#3" arrivalPos="2.55" lines="taxi"/>
        <walk edges="209755663#3 209755663#2 -209755663#0 1317098557 59637812#0 59637812#1 -59637812#2 -59637812#3 59637812#4 -59637812#5 59637812#7 -59637812#8 59637812#9 -59637812#10 -1086010084 -1086010083 -175833044#1 175833044#0 175833041 175833047#0 -175833047#1 -175833047#2 -175833043 -426408073 198123925#0 198123925#1 -19725986#1 -19725986#0" arrivalPos="11.74"/>
    </person>
    <person id="178" depart="30610.52" departPos="random">
        <ride from="-502426859#2" to="519913265#1" arrivalPos="10.00" lines="taxi"/>
        <walk edges="519913265#1" arrivalPos="6.12"/>
    </person>
    <person id="320" depart="30616.96" departPos="random">
        <ride from="239178470#0" to="1426892794#3" arrivalPos="11.14" lines="taxi"/>
        <walk edges="1426892794#3 71759543#0 -71759543#1 71759543#2 -71759543#3 71759543#4 -71759543#5 -71759543#6 71759543#7" arrivalPos="1.65"/>
    </person>
    <person id="159" depart="30628.28" departPos="random">
        <ride from="257424360" to="519913261#1" arrivalPos="15.00" lines="taxi"/>
        <walk edges="519913261#1" arrivalPos="16.21"/>
    </person>
    <person id="108" depart="30649.67" departPos="random">
        <ride from="-70702075#0" to="-30957915" arrivalPos="9.76" lines="taxi"/>
        <walk edges="-30957915 51814854 -89726026#0 -89726026#1" arrivalPos="12.22"/>
    </person>
    <person id="503" depart="30673.22" departPos="random">
        <ride from="-819942942#0" to="25303488#4" arrivalPos="38.05" lines="taxi"/>
        <walk edges="25303488#4 1068735334 69347933#0 -69347933#1 -188727781#1 188727781#0" arrivalPos="117.96"/>
    </person>
    <person id="405" depart="30760.62" departPos="random">
        <ride from="-196520689#0" to="1050853710" arrivalPos="26.41" lines="taxi"/>
        <walk edges="1050853710" arrivalPos="4.27"/>
    </person>
    <person id="627" depart="30804.99" departPos="random">
        <ride from="-170952322#0" to="519913265#1" arrivalPos="10.00" lines="taxi"/>
        <walk edges="519913265#1" arrivalPos="18.32"/>
    </person>
    <person id="513" depart="30848.98" departPos="random">
        <ride from="-47578286" to="-170940321#0" arrivalPos="37.32" lines="taxi"/>
        <walk edges="-170940321#0 -175791806#1 175791806#0 1158102646 -175791807#1" arrivalPos="74.60"/>
    </person>
    <person id="559" depart="30852.80" departPos="random">
        <ride from="268146971#4" to="170952322#1" arrivalPos="51.49" lines="taxi"/>
        <walk edges="170952322#1 382202904#0 -382202904#1 -382202904#2 914487471#0" arrivalPos="0.12"/>
    </person>
    <person id="404" depart="30870.22" departPos="random">
        <ride from="96461184#0" to="1086005533" arrivalPos="30.56" lines="taxi"/>
        <walk edges="1086005533 1136237769" arrivalPos="3.95"/>
    </person>
    <person id="65" depart="30915.84" departPos="random">
        <ride from="-430248876" to="1068735330#1" arrivalPos="7.04" lines="taxi"/>
        <walk edges="1068735330#1 30952483#0 -30952483#1 30952483#2 30952483#3 -30952483#4" arrivalPos="4.58"/>
    </person>
    <person id="26" depart="30916.75" departPos="random">
        <ride from="-70702075#1" to="-894849663" arrivalPos="34.23" lines="taxi"/>
        <walk edges="-894849663 242857963" arrivalPos="7.31"/>
    </person>
    <person id="182" depart="30934.27" departPos="random">
        <ride from="56085325#2" to="1083273108#2" arrivalPos="7.50" lines="taxi"/>
        <walk edges="1083273108#2 123066460 1083299692" arrivalPos="11.20"/>
    </person>
    <person id="53" depart="30960.73" departPos="random">
        <ride from="430248865#11" to="-96461182#0" arrivalPos="7.50" lines="taxi"/>
        <walk edges="-96461182#0" arrivalPos="14.19"/>
    </person>
    <person id="149" depart="30962.87" departPos="random">
        <ride from="-171771447#5" to="519913261#1" arrivalPos="15.00" lines="taxi"/>
        <walk edges="519913261#1" arrivalPos="16.44"/>
    </person>
    <person id="328" depart="31021.78" departPos="random">
        <ride from="26167684#4" to="-501346489#2" arrivalPos="22.96" lines="taxi"/>
        <walk edges="-501346489#2 -501346489#1 501346489#0" arrivalPos="2.70"/>
    </person>
    <person id="310" depart="31067.71" departPos="random">
        <ride from="915198665#1" to="175833048" arrivalPos="84.81" lines="taxi"/>
        <walk edges="175833048 -307930214 1068735315#1 -1068735315#0 -1085975993 349887484 507648839 175833050" arrivalPos="635.31"/>
    </person>
    <person id="31" depart="31079.74" departPos="random">
        <ride from="502426858" to="-96461182#0" arrivalPos="7.50" lines="taxi"/>
        <walk edges="-96461182#0 96461182#1 -96461182#2 -66846274 14014133#2 14014133#3 -56240279#4 56240279#2 -56240279#1" arrivalPos="4.67"/>
    </person>
    <person id="319" depart="31085.33" departPos="random">
        <ride from="88717666#1" to="894576903" arrivalPos="21.39" lines="taxi"/>
        <walk edges="894576903 -1136143562#1 1136143562#0 185845833#3 -185845833#1 -185845833#0 501346488#2" arrivalPos="70.59"/>
    </person>
    <person id="25" depart="31113.27" departPos="random">
        <ride from="1426892794#1" to="209755663#3" arrivalPos="2.55" lines="taxi"/>
        <walk edges="209755663#3 209755663#2 -209755663#0 1317098557 59637812#0 59637812#1 -59637812#2 59637812#3" arrivalPos="24.40"/>
    </person>
    <person id="389" depart="31144.55" departPos="random">
        <ride from="-120840705#7" to="209755663#3" arrivalPos="2.55" lines="taxi"/>
        <walk edges="209755663#3 209755663#2 -209755663#0 1317098557 59637812#0 59637812#1 -59637812#2 -59637812#3 59637812#4 -59637812#5 59637812#7 -59637812#8 59637812#9 59637812#10" arrivalPos="3.73"/>
    </person>
    <person id="81" depart="31201.73" departPos="random">
        <ride from="-391653980#2" to="1068735330#7" arrivalPos="7.50" lines="taxi"/>
        <walk edges="1068735330#7 30984008 -30984012#2 -30984012#3 30984006" arrivalPos="41.06"/>
    </person>
    <person id="171" depart="31305.82" departPos="random">
        <ride from="-31060929#1" to="519913257#1" arrivalPos="15.00" lines="taxi"/>
        <walk edges="519913257#1" arrivalPos="15.65"/>
    </person>
    <person id="4" depart="31307.60" departPos="random">
        <ride from="-391657351" to="120829159" arrivalPos="10.00" lines="taxi"/>
        <walk edges="120829159 1083356001 614559903 171771430 -171771449#3 171771449#2" arrivalPos="23.43"/>
    </person>
    <person id="152" depart="31417.42" departPos="random">
        <ride from="-890169725#1" to="519913261#1" arrivalPos="15.00" lines="taxi"/>
        <walk edges="519913261#1" arrivalPos="1.90"/>
    </person>
    <person id="305" depart="31443.76" departPos="random">
        <ride from="1115020156" to="175833048" arrivalPos="84.81" lines="taxi"/>
        <walk edges="175833048 71189943#0 -71189943#1 308250435#0 -308250435#1 308250435#2 308250435#3 315159487#0" arrivalPos="19.00"/>
    </person>
    <person id="459" depart="31517.25" departPos="random">
        <ride from="-382202904#2" to="25303488#4" arrivalPos="38.05" lines="taxi"/>
        <walk edges="25303488#4 154770319#4" arrivalPos="132.79"/>
    </person>
    <person id="574" depart="31596.01" departPos="random">
        <ride from="-188727781#0" to="519913263#1" arrivalPos="15.00" lines="taxi"/>
        <walk edges="519913263#1" arrivalPos="8.89"/>
    </person>
    <person id="227" depart="31675.28" departPos="random">
        <ride from="25418590#1" to="-69218976#0" arrivalPos="93.33" lines="taxi"/>
        <walk edges="-69218976#0 -1441870936#7 1441870936#6 -1441870936#5" arrivalPos="5.46"/>
    </person>
    <person id="401" depart="31825.03" departPos="random">
        <ride from="25303488#2" to="-209788013" arrivalPos="516.88" lines="taxi"/>
        <walk edges="-209788013 76091869#0 1136237774" arrivalPos="0.70"/>
    </person>
    <person id="257" depart="31890.36" departPos="random">
        <ride from="31061886#0" to="915198678#0" arrivalPos="23.94" lines="taxi"/>
        <walk edges="915198678#0 915198674 915198676#2" arrivalPos="11.25"/>
    </person>
    <person id="481" depart="31898.30" departPos="random">
        <ride from="30984018#5" to="-170940321#0" arrivalPos="37.32" lines="taxi"/>
        <walk edges="-170940321#0 -175791806#1 175791806#0 1158102646 -175791807#1" arrivalPos="21.60"/>
    </person>
    <person id="175" depart="31926.75" departPos="random">
        <ride from="-614457355" to="519913265#1" arrivalPos="10.00" lines="taxi"/>
        <walk edges="519913265#1" arrivalPos="4.95"/>
    </person>
    <person id="283" depart="32007.97" departPos="random">
        <ride from="-30952496#0" to="519913261#1" arrivalPos="15.00" lines="taxi"/>
        <walk edges="519913261#1" arrivalPos="1.33"/>
    </person>
    <person id="475" depart="32023.90" departPos="random">
        <ride from="-191253662#6" to="170940321#0" arrivalPos="43.86" lines="taxi"/>
        <walk edges="170940321#0 -170940321#1 170952324#5 219034871#0" arrivalPos="2.15"/>
    </person>
    <person id="495" depart="32032.74" departPos="random">
        <ride from="30957910#2" to="30952515#0" arrivalPos="5.29" lines="taxi"/>
        <walk edges="30952515#0 72562019#0 -72562019#1 -30952527#1 -30952527#0 30952535#2" arrivalPos="47.66"/>
    </person>
    <person id="339" depart="32096.93" departPos="random">
        <ride from="189023056#2" to="175833048" arrivalPos="84.81" lines="taxi"/>
        <walk edges="175833048 71189943#0 -71189943#1 308250435#0 308250435#1" arrivalPos="23.51"/>
    </person>
    <person id="68" depart="32102.66" departPos="random">
        <ride from="1163547104#0" to="1068941219#7" arrivalPos="18.33" lines="taxi"/>
        <walk edges="1068941219#7 -1068941219#7" arrivalPos="30.24"/>
    </person>
    <person id="512" depart="32132.19" departPos="random">
        <ride from="-152390930#1" to="-30957907" arrivalPos="66.03" lines="taxi"/>
        <walk edges="-30957907 26167898#0 26167898#1 -26167908#1 26167908#3 26167908#4 235361058#0 235361058#1 -918447407" arrivalPos="23.85"/>
    </person>
    <person id="293" depart="32151.02" departPos="random">
        <ride from="-819942942#0" to="120829159" arrivalPos="10.00" lines="taxi"/>
        <walk edges="120829159 1083356001 614559903 171771430 171771449#3" arrivalPos="74.15"/>
    </person>
    <person id="84" depart="32165.36" departPos="random">
        <ride from="-70702075#5" to="185833040#1" arrivalPos="15.53" lines="taxi"/>
        <walk edges="185833040#1 185833040#2 664380228#1 664380228#0" arrivalPos="25.26"/>
    </person>
    <person id="38" depart="32180.65" departPos="random">
        <ride from="70702075#4" to="1472605488#2" arrivalPos="18.43" lines="taxi"/>
        <walk edges="1472605488#2" arrivalPos="17.59"/>
    </person>
    <person id="368" depart="32193.46" departPos="random">
        <ride from="88723957#2" to="56240189#7" arrivalPos="7.50" lines="taxi"/>
        <walk edges="56240189#7 -56240189#5" arrivalPos="33.74"/>
    </person>
    <person id="86" depart="32235.74" departPos="random">
        <ride from="-434037661#2" to="-1050853709#0" arrivalPos="19.32" lines="taxi"/>
        <walk edges="-1050853709#0" arrivalPos="25.81"/>
    </person>
    <person id="34" depart="32263.84" departPos="random">
        <ride from="171771388#3" to="-96461182#0" arrivalPos="7.50" lines="taxi"/>
        <walk edges="-96461182#0 96461182#1 -96461182#2 -66846274" arrivalPos="224.03"/>
    </person>
    <person id="105" depart="32394.65" departPos="random">
        <ride from="-1443580513#3" to="-170940321#0" arrivalPos="37.32" lines="taxi"/>
        <walk edges="-170940321#0 -175791806#1 175791806#0 -1158102646" arrivalPos="37.22"/>
    </person>
    <person id="220" depart="32457.85" departPos="random">
        <ride from="-30952510#0" to="365973802" arrivalPos="24.53" lines="taxi"/>
        <walk edges="365973802 -1162538599#1 -1162538599#2 -1162538599#3" arrivalPos="10.55"/>
    </person>
    <person id="42" depart="32473.54" departPos="random">
        <ride from="171771381#2" to="209755663#3" arrivalPos="2.55" lines="taxi"/>
        <walk edges="209755663#3 209755663#2 -209755663#0 1317098557 59637812#0 59637812#1 -59637812#2 -59637812#3 59637812#4 -59637812#5 59637812#7 -59637812#8 59637812#9 59637812#10" arrivalPos="48.93"/>
    </person>
    <person id="424" depart="32568.60" departPos="random">
        <ride from="30952515#1" to="185833040#1" arrivalPos="15.53" lines="taxi"/>
        <walk edges="185833040#1 185833040#2 664380228#1 664380228#0" arrivalPos="58.30"/>
    </person>
    <person id="135" depart="32585.92" departPos="random">
        <ride from="890169725#3" to="519913265#1" arrivalPos="10.00" lines="taxi"/>
        <walk edges="519913265#1" arrivalPos="0.65"/>
    </person>
    <person id="585" depart="32599.45" departPos="random">
        <ride from="-69347933#1" to="519913265#1" arrivalPos="10.00" lines="taxi"/>
        <walk edges="519913265#1" arrivalPos="8.30"/>
    </person>
    <person id="303" depart="32640.30" departPos="random">
        <ride from="188730896#3" to="391661586" arrivalPos="62.32" lines="taxi"/>
        <walk edges="391661586 -391661587#0 391661587#1 -391661587#1" arrivalPos="0.02"/>
    </person>
    <person id="359" depart="32723.94" departPos="random">
        <ride from="1113452970#0" to="56240189#0" arrivalPos="27.49" lines="taxi"/>
        <walk edges="56240189#0 1418170811 72561717#0 -72561717#1 -72561717#2" arrivalPos="336.33"/>
    </person>
    <person id="274" depart="32738.62" departPos="random">
        <ride from="117803119#1" to="519913257#1" arrivalPos="15.00" lines="taxi"/>
        <walk edges="519913257#1" arrivalPos="17.89"/>
    </person>
    <person id="570" depart="32785.41" departPos="random">
        <ride from="-152385705#0" to="519913263#1" arrivalPos="15.00" lines="taxi"/>
        <walk edges="519913263#1" arrivalPos="26.21"/>
    </person>
    <person id="418" depart="32849.12" departPos="random">
        <ride from="72562096#0" to="1068735330#1" arrivalPos="7.04" lines="taxi"/>
        <walk edges="1068735330#1 30952483#0 -30952483#1 -30952483#2" arrivalPos="21.46"/>
    </person>
    <person id="348" depart="32873.32" departPos="random">
        <ride from="189023056#0" to="-96461182#0" arrivalPos="7.50" lines="taxi"/>
        <walk edges="-96461182#0 1472605488#1 1472605488#0 1201541125 52959697#0 52959697#1 52959697#2 -52959697#3 56085325#0 -56085323#1 56085323#0 198118940#1" arrivalPos="18.30"/>
    </person>
    <person id="207" depart="32903.74" departPos="random">
        <ride from="426408076#1" to="-170940321#0" arrivalPos="37.32" lines="taxi"/>
        <walk edges="-170940321#0 -175791806#1 175791806#0 1158102646 -175791807#1 -175791807#0 -26167678#1" arrivalPos="29.35"/>
    </person>
    <person id="312" depart="32930.78" departPos="random">
        <ride from="26167908#1" to="391661586" arrivalPos="62.32" lines="taxi"/>
        <walk edges="391661586 128157724#0 128157724#1 -1162541061#0 -1162541061#1" arrivalPos="10.55"/>
    </person>
    <person id="281" depart="32980.13" departPos="random">
        <ride from="-209788024#1" to="519913263#1" arrivalPos="15.00" lines="taxi"/>
        <walk edges="519913263#1" arrivalPos="24.76"/>
    </person>
    <person id="21" depart="32987.11" departPos="random">
        <ride from="-208826839#0" to="62065386" arrivalPos="7.50" lines="taxi"/>
        <walk edges="62065386 120839520 -41157381 171771447#1" arrivalPos="3.20"/>
    </person>
    <person id="147" depart="33007.36" departPos="random">
        <ride from="1036672004#0" to="519913257#1" arrivalPos="15.00" lines="taxi"/>
        <walk edges="519913257#1" arrivalPos="27.80"/>
    </person>
    <person id="103" depart="33017.02" departPos="random">
        <ride from="429497063#0" to="-170940321#0" arrivalPos="37.32" lines="taxi"/>
        <walk edges="-170940321#0" arrivalPos="18.00"/>
    </person>
    <person id="370" depart="33072.19" departPos="random">
        <ride from="382202903#3" to="-96461182#0" arrivalPos="7.50" lines="taxi"/>
        <walk edges="-96461182#0 96461182#1 -96461182#2 -66846274 14014133#2 14014133#3 -56240279#4 56240279#2 -56240279#1 -56240279#0" arrivalPos="22.11"/>
    </person>
    <person id="82" depart="33094.93" departPos="random">
        <ride from="186140135#3" to="187198083#0" arrivalPos="12.48" lines="taxi"/>
        <walk edges="187198083#0 116077721#0" arrivalPos="37.67"/>
    </person>
    <person id="325" depart="33102.24" departPos="random">
        <ride from="-170940321#1" to="-890169725#1" arrivalPos="3.04" lines="taxi"/>