<routes xmlns:xsi="http://www.w3.org/2001/XMLSchema-instance" xsi:noNamespaceSchemaLocation="http://sumo.dlr.de/xsd/routes_file.xsd">
    <person id="se606" depart="28833.54" departPos="random">
        <walk edges="-30957911 30957908#1 915198678#0" busStop="158.TA.96-260-1-j24-1.72.H.33" /> 
        <ride from="915198678#0" to="519913265#1" busStop="vbs_St_Moritz_extra_cap" lines="taxi" />
        <walk edges="519913265#1" arrivalPos="24.43" />
    </person>
    <person id="se167" depart="28888.60" departPos="random">
        <walk edges="-501346489#1 -501346489#2" busStop="16.TA.96-290-0-j24-1.26.H.1" /> 
        <ride from="-501346489#2" to="519913265#1" busStop="vbs_St_Moritz_extra_cap" lines="taxi" />
        <walk edges="519913265#1" arrivalPos="19.54" />
    </person>
    <person id="se341" depart="28909.27" departPos="random">
        <walk edges="1115015078#3 1115015077#1 -1115015077#2 391952926#1 391952926#2 -391952926#3 -39830434#2 39830434#1 39830434#0 268146940#3 -268146940#4 -268146940#5 -268146940#6" busStop="262.TA.92-10-J-j24-1.4.H.9" /> 
        <ride from="-268146940#6" to="-96461182#0" busStop="459.TA.92-10-J-j24-1.71.H.28" lines="taxi" /> 
        <walk edges="-96461182#0 1472605488#1 -56195874#1 -239035118#0 -239035118#1" arrivalPos="2.07" />
    </person>
    <person id="se52" depart="28921.78" departPos="random">
        <walk edges="522706570#1 522706570#0 71759543#3 71759543#2 -71759543#1 71759543#0 1426892794#3" busStop="16.TA.96-290-0-j24-1.26.H.16" /> 
        <ride from="1426892794#3" to="-96461182#0" busStop="459.TA.92-10-J-j24-1.71.H.28" lines="taxi" /> 
        <walk edges="-96461182#0 1472605488#1 1472605488#0 1201541125 52959697#0 52959697#1 52959697#2 -52959697#3 56085325#0 -56085325#1 56085325#2 56085325#3 -56085325#4" arrivalPos="34.23" />
    </person>
    <person id="se322" depart="28930.11" departPos="random">
        <walk edges="-25303488#3 25303488#4" busStop="1034.TA.92-2-L-j24-1.15.H.13" /> 
        <ride from="25303488#4" to="890169725#1" busStop="48.TA.96-290-0-j24-1.17.R.9" lines="taxi" /> 
        <walk edges="890169725#1 -890169723#0 -890169723#1 890169723#2 -1036672006#0 -1036672006#1 391653985#1 1036672007 -391653993#2 -338400631#1 338400631#0 -890158294" arrivalPos="86.94" />
    </person>
    <person id="se210" depart="29010.76" departPos="random">
        <walk edges="56240279#2 -56240279#2 -56240279#4 14014133#3 14014133#2 -66846274 -96461182#2 96461182#1 1472605488#2" busStop="1136.TA.92-10-J-j24-1.22.R.6" /> 
        <ride from="1472605488#2" to="519913257#1" busStop="1.TA.92-4-Q-j24-1.7.R.13" lines="taxi" /> 
        <walk edges="519913257#1 519913257#0 916468197 72562096#0 89724876#3 916015460#1 916015460#0 1189801663 -268776830#1 268776830#0 888359128#3 14014151 -1127470773 -232471144#0 -232471144#1 232471144#2 -1318101191#1 -1318101192 189023055#0 189023055#1" arrivalPos="9.26" />
    </person>
    <person id="se555" depart="29078.45" departPos="random">
        <walk edges="-152517446 1005170350 152517715#3" busStop="1679.TA.92-1-N-j24-1.90.R.5" /> 
        <ride from="152517715#3" to="268146940#6" busStop="1136.TA.92-10-J-j24-1.22.R.23" lines="taxi" /> 
        <walk edges="268146940#6 268146940#5 -204540721#0" arrivalPos="4.48" />
    </person>
    <person id="se85" depart="29122.82" departPos="random">
        <walk edges="-391657350#1 502426852#0" busStop="36.TA.96-290-0-j24-1.27.R.3" /> 
        <ride from="502426852#0" to="18887954#0" busStop="1.TA.92-20-E-j24-1.5.H.4" lines="taxi" /> 
        <walk edges="18887954#0 -116507538#0" arrivalPos="3.64" />
    </person>
    <person id="se406" depart="29139.76" departPos="random">
        <walk edges="1115015079#0 -1115015079#0 -210208895" busStop="vbs_ski_corviglia_valley_chantarella" />
        <ride from="-210208895" to="25418590#1" busStop="10.TA.92-20-E-j24-1.1.H.10" lines="taxi" /> 
        <walk edges="25418590#1 30957918#0 30957921#0 30957922" arrivalPos="18.34" />
    </person>
    <person id="se522" depart="29140.80" departPos="random">
        <walk edges="-819942940#3 819942940#2 819942940#1 -41595603#2 894576901#0" busStop="1136.TA.92-10-J-j24-1.22.R.22" /> 
        <ride from="894576901#0" to="-170952322#1" busStop="114.TA.92-9-H-j24-1.10.H.4" lines="taxi" /> 
        <walk edges="-170952322#1 382202904#0 -382202904#1 382202904#2" arrivalPos="0.15" />
    </person>
    <person id="se426" depart="29155.36" departPos="random">
        <walk edges="-189023055#0 189023055#0 -1318101192 -1318101191#1 232471144#2 232471144#1 -232471144#0 -1127470773 14014151 888359128#3 268776830#0 -268776830#1 1189801663 916015460#0 916015460#1 89724876#3 72562096#0 916468197 519913257#0 519913257#1" busStop="1.TA.92-4-Q-j24-1.7.R.13" /> 
        <ride from="519913257#1" to="1086005529" busStop="1008.TA.92-1-N-j24-1.88.H.26" lines="taxi" /> 
        <walk edges="1086005529 14014136#0 1086005528 -1086005527#0 31061886#0 -31061886#1 31061886#2 -31061886#3" arrivalPos="0.18" />
    </person>
    <person id="se299" depart="29182.67" departPos="random">
        <walk edges="89727907 -1219872249#1 1219872249#0 1219872250 -30957907" busStop="1008.TA.92-1-N-j24-1.88.H.25" /> 
        <ride from="-30957907" to="1426892794#3" busStop="16.TA.96-290-0-j24-1.26.H.16" lines="taxi" /> 
        <walk edges="1426892794#3 1426892796 1426892784 1426892791 1426892783 1426892797 -1024855417" arrivalPos="18.05" />
    </person>
    <person id="se67" depart="29217.29" departPos="random">
        <walk edges="-391653986#0 391653986#0 -338400632#3 -1036672004#1 1036672004#0 -391653985#0 -391653985#1 -1036672006#1 -1036672006#0 890169723#2 -890169723#1 -890169723#0 890169725#1" busStop="48.TA.96-290-0-j24-1.17.R.9" /> 
        <ride from="890169725#1" to="1068735330#1" busStop="1136.TA.92-10-J-j24-1.22.R.13" lines="taxi" /> 
        <walk edges="1068735330#1 1068735330#0 1068735329#2 430606782" arrivalPos="3.28" />
    </person>
    <person id="se388" depart="29225.10" departPos="random">
        <walk edges="1189801663 916015460#0 916015460#1 89724876#3 72562096#0 916468197 519913257#0 519913257#1" busStop="1.TA.92-4-Q-j24-1.7.R.13" /> 
        <ride from="519913257#1" to="209755663#3" busStop="1136.TA.92-10-J-j24-1.22.R.5" lines="taxi" /> 
        <walk edges="209755663#3 209755663#2 -209755663#0 1317098557 59637812#0 59637812#1 -59637812#2 -59637812#3 59637812#4 -59637812#5 59637812#7 -59637812#8 59637812#9 -59637812#10 -1086010084 -1086010083 -175833044#1 175833044#0 175833041 241932762#4 241932762#3 -241932762#2 241932762#1 241932762#0 -426408082#1 426408082#0 -426408076#5 426408076#4 426408076#3 -426408076#2 -426408076#1" arrivalPos="77.68" />
    </person>
    <person id="se636" depart="29330.66" departPos="random">
        <walk edges="1005048061#2 -1005048061#2 -152522410#1 819942940#1 -41595603#2 894576901#0" busStop="1136.TA.92-10-J-j24-1.22.R.22" /> 
        <ride from="894576901#0" to="519913265#1" busStop="vbs_St_Moritz_extra_cap" lines="taxi" />
        <walk edges="519913265#1" arrivalPos="15.53" />
    </person>
    <person id="se351" depart="29417.73" departPos="random">
        <walk edges="-1428300394 1428300394 -196520689#2 -196520689#1 196520689#0 740109140" busStop="vbs_ski_corviglia_valley_chasellas" />
        <ride from="740109140" to="-894905824" busStop="459.TA.92-10-J-j24-1.71.H.29" lines="taxi" /> 
        <walk edges="-894905824 1068735318#0 -1068735318#1 -1068735318#2 -256959702#0 256959702#1" arrivalPos="7.08" />
    </person>
    <person id="se204" depart="29493.28" departPos="random">
        <walk edges="56085325#0 -52959697#3 -52959697#2 52959697#1 52959697#0 1201541125 -1472605488#0 1472605488#1 1472605488#2" busStop="1136.TA.92-10-J-j24-1.22.R.6" /> 
        <ride from="1472605488#2" to="1068735330#1" busStop="1136.TA.92-10-J-j24-1.22.R.13" lines="taxi" /> 
        <walk edges="1068735330#1 1068735330#0 18888058 72562012" arrivalPos="38.06" />
    </person>
    <person id="se486" depart="29555.92" departPos="random">
        <walk edges="-1466236176 96461180#6 -96461180#5" busStop="1128.TA.92-9-H-j24-1.12.R.0" /> 
        <ride from="-96461180#5" to="-268146971#2" busStop="2386.TA.92-1-N-j24-1.93.R.3" lines="taxi" /> 
        <walk edges="-268146971#2" arrivalPos="71.92" />
    </person>
    <person id="se497" depart="29600.84" departPos="random">
        <walk edges="88723957#0 96461180#5" busStop="114.TA.92-9-H-j24-1.10.H.8" /> 
        <ride from="96461180#5" to="519913265#1" busStop="vbs_St_Moritz_extra_cap" lines="taxi" />
        <walk edges="519913265#1 519913265#0 -903531446 -120840712#0" arrivalPos="24.08" />
    </person>
    <person id="se640" depart="29653.00" departPos="random">
        <walk edges="501346486 -501346486 543256263#3 -543256264#1 -543256264#0 -1435131960#2 1435131960#1 -268146971#4 -268146971#3 -268146971#2" busStop="2386.TA.92-1-N-j24-1.93.R.3" /> 
        <ride from="-268146971#2" to="519913261#1" busStop="154.TA.92-1-N-j24-1.77.H.0" lines="taxi" /> 
        <walk edges="519913261#1" arrivalPos="19.38" />
    </person>
    <person id="se224" depart="29670.35" departPos="random">
        <walk edges="-1050853680 -25418588#1" busStop="2467.TA.92-1-N-j24-1.95.R.2" /> 
        <ride from="-25418588#1" to="315159496#1" busStop="459.TA.92-10-J-j24-1.71.H.33" lines="taxi" /> 
        <walk edges="315159496#1 -890627011" arrivalPos="2.92" />
    </person>
    <person id="se242" depart="29880.92" departPos="random">
        <walk edges="1136246853 1430507283 -186141915#1 186141915#0 -31061889#4 -31061889#3 31061889#2 31061889#0 187198083#7" busStop="1.TA.92-20-E-j24-1.5.H.3" /> 
        <ride from="187198083#7" to="56240189#4" busStop="1320.TA.92-2-L-j24-1.24.R.0" lines="taxi" /> 
        <walk edges="56240189#4 -1212211274" arrivalPos="8.17" />
    </person>
    <person id="se127" depart="29903.27" departPos="random">
        <walk edges="1104475589#1 -1303309211#0 -1303309211#1 522703208#0 -522703208#1 522703208#2 -522703208#3 520990193#0 71759543#7 71759543#6 71759543#5 71759543#4 71759543#3 71759543#2 -71759543#1 71759543#0 1426892794#3" busStop="16.TA.96-290-0-j24-1.26.H.16" /> 
        <ride from="1426892794#3" to="519913261#1" busStop="154.TA.92-1-N-j24-1.77.H.0" lines="taxi" /> 
        <walk edges="519913261#1" arrivalPos="8.71" />
    </person>
    <person id="se376" depart="29914.89" departPos="random">
        <walk edges="1115020156 1005170350 -152517715#3" busStop="1008.TA.92-1-N-j24-1.88.H.18" /> 
        <ride from="-152517715#3" to="209755663#3" busStop="1136.TA.92-10-J-j24-1.22.R.5" lines="taxi" /> 
        <walk edges="209755663#3 209755663#2 -209755663#0 1317098557 59637812#0 59637812#1 -59637812#2 -59637812#3 59637812#4 -59637812#5 59637812#7 -59637812#8 59637812#9 -59637812#10 -1086010084 -1086010083 -175833044#1 175833044#0" arrivalPos="225.39" />
    </person>
    <person id="se308" depart="29919.15" departPos="random">
        <walk edges="519913257#0 519913257#1" busStop="1.TA.92-4-Q-j24-1.7.R.13" /> 
        <ride from="519913257#1" to="175833048" busStop="vbs_mp1" lines="taxi" />
        <walk edges="175833048 -307930214 1068735315#1 -1068735315#0 -1085975993 349887484 507648839 -175833050 349888201#1" arrivalPos="275.72" />
    </person>
    <person id="se316" depart="29969.09" departPos="random">
        <walk edges="-219034871#1 219034871#1 219034871#0 -170952324#5 170940321#1 170940321#0" busStop="1008.TA.92-1-N-j24-1.88.H.22" /> 
        <ride from="170940321#0" to="-977972910" busStop="1136.TA.92-10-J-j24-1.22.R.0" lines="taxi" /> 
        <walk edges="-977972910 -170952349#1 170952349#0" arrivalPos="51.16" />
    </person>
    <person id="se291" depart="29979.20" departPos="random">
        <walk edges="188730896#2 188730896#1 188730896#0 69347933#1 69347933#0 1068735334 25303488#4" busStop="1034.TA.92-2-L-j24-1.15.H.13" /> 
        <ride from="25303488#4" to="-502426851#0" busStop="16.TA.96-290-0-j24-1.26.H.14" lines="taxi" /> 
        <walk edges="-502426851#0 391657349 171771397 -375911465#1 171771403#0 -171771403#1 1374806603 -208216576#0 208216576#1 208216576#2" arrivalPos="13.18" />
    </person>
    <person id="se69" depart="30029.13" departPos="random">
        <walk edges="-1083273108#3 1083273108#2" busStop="48.TA.96-290-0-j24-1.17.R.10" /> 
        <ride from="1083273108#2" to="1086005533" busStop="2467.TA.92-1-N-j24-1.95.R.3" lines="taxi" /> 
        <walk edges="1086005533 1136237770 14014136#0 1086005528 -1086005527#0 31061886#0 -31061886#1 31061886#2 31061886#3" arrivalPos="12.32" />
    </person>
    <person id="se206" depart="30036.36" departPos="random">
        <walk edges="175833044#1 -175833044#1 -1086010083 -1086010084 -59637812#10 59637812#9 -59637812#8 59637812#7 -59637812#5 59637812#4 -59637812#3 -59637812#2 59637812#1 59637812#0 -58413640#0 -209755663#0 209755663#2 209755663#3" busStop="1136.TA.92-10-J-j24-1.22.R.5" /> 
        <ride from="209755663#3" to="-1113164891" busStop="vbs_ski_corviglia_valley_salastrains" lines="taxi" />
        <walk edges="-1113164891 -1041492060#1" arrivalPos="9.96" />
    </person>
    <person id="se62" depart="30056.12" departPos="random">
        <walk edges="1083276371#0 1083351550#1 1083351550#0" busStop="48.TA.96-290-0-j24-1.17.R.7" /> 
        <ride from="1083351550#0" to="209755663#3" busStop="1136.TA.92-10-J-j24-1.22.R.5" lines="taxi" /> 
        <walk edges="209755663#3 209755663#2 -209755663#0 1317098557 59637812#0 59637812#1 -59637812#2 -59637812#3 59637812#4 -59637812#5 59637812#7 -59637812#8 59637812#9 -59637812#10 -1086010084" arrivalPos="6.03" />
    </person>
    <person id="se215" depart="30098.74" departPos="random">
        <walk edges="241932758 198123924#1 198123924#0 426408073 -175833043 -175833047#2 -175833047#1 175833047#0 175833041 175833044#0 -175833044#1 -1086010083 -1086010084 -59637812#10 59637812#9 -59637812#8 59637812#7 -59637812#5 59637812#4 -59637812#3 -59637812#2 59637812#1 59637812#0 -58413640#0 -209755663#0 209755663#2 209755663#3" busStop="1136.TA.92-10-J-j24-1.22.R.5" /> 
        <ride from="209755663#3" to="519913261#1" busStop="154.TA.92-1-N-j24-1.77.H.0" lines="taxi" /> 
        <walk edges="519913261#1" arrivalPos="0.92" />
    </person>
    <person id="se123" depart="30159.91" departPos="random">
        <walk edges="501346488#1 -501346488#0 -315159494#2 315159494#1 -1136215938 315159496#3 315159496#2 315159496#1 -315159496#0" busStop="1136.TA.92-10-J-j24-1.22.R.1" /> 
        <ride from="-315159496#0" to="25412019" busStop="262.TA.92-10-J-j24-1.4.H.10" lines="taxi" /> 
        <walk edges="25412019 152337234#0 -152337234#1 -152516779#0 60103241" arrivalPos="33.27" />
    </person>
    <person id="se118" depart="30199.14" departPos="random">
        <walk edges="1104477696 472298258 1426892782 1426892784 1426892796 1426892794#3" busStop="16.TA.96-290-0-j24-1.26.H.16" /> 
        <ride from="1426892794#3" to="170952324#1" busStop="1679.TA.92-1-N-j24-1.90.R.0" lines="taxi" /> 
        <walk edges="170952324#1 170952324#0 19724261 769993301#0 915198669 915198670" arrivalPos="21.94" />
    </person>
    <person id="se136" depart="30205.95" departPos="random">
        <walk edges="502426856#0 1186865305 -502426855#2 502426855#1" busStop="36.TA.96-290-0-j24-1.27.R.5" /> 
        <ride from="502426855#1" to="519913265#1" busStop="vbs_St_Moritz_extra_cap" lines="taxi" />
        <walk edges="519913265#1" arrivalPos="4.36" />
    </person>
    <person id="se407" depart="30301.16" departPos="random">
        <walk edges="-916468197 519913257#0 519913257#1" busStop="1.TA.92-4-Q-j24-1.7.R.13" /> 
        <ride from="519913257#1" to="30952515#0" busStop="459.TA.92-10-J-j24-1.71.H.20" lines="taxi" /> 
        <walk edges="30952515#0 72562019#0 -72562019#1 72562019#2 72562019#3 72562019#4 1435131955#1 -1435131955#2 -894841757 -209049898 209049898" arrivalPos="0.19" />
    </person>
    <person id="se491" depart="30351.54" departPos="random">
        <walk edges="152522410#1 -152522410#1 819942940#1 -41595603#2 894576901#0" busStop="1136.TA.92-10-J-j24-1.22.R.22" /> 
        <ride from="894576901#0" to="519913257#1" busStop="1.TA.92-4-Q-j24-1.7.R.13" lines="taxi" /> 
        <walk edges="519913257#1 519913257#0 916468197 72562096#0 89724876#3 916015460#1 916015460#0 1189801663 -268776830#1 268776830#0 888359128#3 888359128#4 -1189801662 -888359127" arrivalPos="38.34" />
    </person>
    <person id="se330" depart="30363.96" departPos="random">
        <walk edges="543256263#1 543256263#2 -543256264#1 -543256264#0 -1435131960#2 1435131960#1 -268146971#4 -268146971#3 -268146971#2" busStop="2386.TA.92-1-N-j24-1.93.R.3" /> 
        <ride from="-268146971#2" to="391661586" busStop="14.TA.96-290-0-j24-1.25.H.12" lines="taxi" /> 
        <walk edges="391661586 128157724#0 128157724#1 -1162541061#0 1162541061#1 -1162541061#2 -1162541061#3 -186947410#0" arrivalPos="67.79" />
    </person>
    <person id="se144" depart="30393.62" departPos="random">
        <walk edges="123067865#2 -123067865#2 522703204 -171771449#0 -171771449#2 -171771449#3 -171771430 -614559903 1083356001 120829159" busStop="1.TA.96-290-3-j24-1.1.H.4" /> 
        <ride from="120829159" to="519913263#1" busStop="1008.TA.92-1-N-j24-1.88.H.14" lines="taxi" /> 
        <walk edges="519913263#1" arrivalPos="9.39" />
    </person>
    <person id="se369" depart="30414.82" departPos="random">
        <walk edges="26167684#1 26167684#0 170952324#0 -170952324#1" busStop="1008.TA.92-1-N-j24-1.88.H.23" /> 
        <ride from="-170952324#1" to="56240189#7" busStop="1136.TA.92-10-J-j24-1.22.R.4" lines="taxi" /> 
        <walk edges="56240189#7 -56240189#8 56240189#9 -973459742#0" arrivalPos="2.84" />
    </person>
    <person id="se186" depart="30452.57" departPos="random">
        <walk edges="56240189#3 56240189#2 -56240189#0" busStop="459.TA.92-10-J-j24-1.71.H.31" /> 
        <ride from="-56240189#0" to="-69218976#0" busStop="vbs_mp2" lines="taxi" />
        <walk edges="-69218976#0 69219145" arrivalPos="17.94" />
    </person>
    <person id="se263" depart="30534.61" departPos="random">
        <walk edges="30957933 -30957932#3 30957932#2 -30957932#1 30957932#0 -96461188 30957916#1" busStop="1008.TA.92-1-N-j24-1.88.H.28" /> 
        <ride from="30957916#1" to="30957907" busStop="2467.TA.92-1-N-j24-1.95.R.4" lines="taxi" /> 
        <walk edges="30957907" arrivalPos="256.51" />
    </person>
    <person id="se391" depart="30535.93" departPos="random">
        <walk edges="188730896#6 -188730896#6 740109140" busStop="vbs_ski_corviglia_valley_chasellas" />
        <ride from="740109140" to="209755663#3" busStop="1136.TA.92-10-J-j24-1.22.R.5" lines="taxi" /> 
        <walk edges="209755663#3 209755663#2 -209755663#0 1317098557 59637812#0 59637812#1 -59637812#2 -59637812#3 59637812#4 -59637812#5 59637812#7 -59637812#8 59637812#9 -59637812#10 -1086010084 -1086010083 -175833044#1 175833044#0 175833041 241932762#4 241932762#3 -241932762#2 241932762#1 241932762#0 -426408082#1 426408082#0 76129128#0 -76129128#1" arrivalPos="90.50" />
    </person>
    <person id="se24" depart="30552.65" departPos="random">
        <walk edges="-391653980#2 -391653980#3 391653980#5 -1324238128 890169725#3 -890169725#2 890169725#1" busStop="48.TA.96-290-0-j24-1.17.R.9" /> 
        <ride from="890169725#1" to="209755663#3" busStop="1136.TA.92-10-J-j24-1.22.R.5" lines="taxi" /> 
        <walk edges="209755663#3 209755663#2 -209755663#0 1317098557 59637812#0 59637812#1 -59637812#2 -59637812#3 59637812#4 -59637812#5 59637812#7 -59637812#8 59637812#9 -59637812#10 -1086010084 -1086010083 -175833044#1 175833044#0 175833041 175833047#0 -175833047#1 -175833047#2 -175833043 -426408073 198123925#0 198123925#1 -19725986#1 -19725986#0" arrivalPos="11.74" />
    </person>
    <person id="se178" depart="30610.52" departPos="random">
        <walk edges="-502426859#2 502426859#2 -502426859#1 502426859#0 1069366698 -633986854#1" busStop="14.TA.96-290-0-j24-1.25.H.7" /> 
        <ride from="-633986854#1" to="519913265#1" busStop="vbs_St_Moritz_extra_cap" lines="taxi" />
        <walk edges="519913265#1" arrivalPos="6.12" />
    </person>
    <person id="se320" depart="30616.96" departPos="random">
        <walk edges="239178470#0 -170952324#5 170940321#1 170940321#0" busStop="1008.TA.92-1-N-j24-1.88.H.22" /> 
        <ride from="170940321#0" to="1426892794#3" busStop="16.TA.96-290-0-j24-1.26.H.16" lines="taxi" /> 
        <walk edges="1426892794#3 71759543#0 -71759543#1 71759543#2 -71759543#3 71759543#4 -71759543#5 -71759543#6 71759543#7" arrivalPos="1.65" />
    </person>
    <person id="se159" depart="30628.28" departPos="random">
        <walk edges="257424360 -87104682 -70703176 1136143576 -315159485#5 -315159485#4 315159485#3 -315159485#2 -315159485#1 315159485#0 977972909" busStop="36.TA.96-290-0-j24-1.27.R.12" /> 
        <ride from="977972909" to="519913261#1" busStop="154.TA.92-1-N-j24-1.77.H.0" lines="taxi" /> 
        <walk edges="519913261#1" arrivalPos="16.21" />
    </person>
    <person id="se108" depart="30649.67" departPos="random">
        <walk edges="-70702075#0 -70702075#1 70702075#3 -70702075#4 -70702075#5 -315159496#0" busStop="1136.TA.92-10-J-j24-1.22.R.1" /> 
        <ride from="-315159496#0" to="30957915" busStop="1008.TA.92-1-N-j24-1.88.H.20" lines="taxi" /> 
        <walk edges="30957915 51814854 -89726026#0 -89726026#1" arrivalPos="12.22" />
    </person>
    <person id="se503" depart="30673.22" departPos="random">
        <walk edges="-819942942#0 819942940#0 -41595603#2 894576901#0" busStop="1136.TA.92-10-J-j24-1.22.R.22" /> 
        <ride from="894576901#0" to="25303488#4" busStop="1034.TA.92-2-L-j24-1.15.H.13" lines="taxi" /> 
        <walk edges="25303488#4 1068735334 69347933#0 -69347933#1 -188727781#1 188727781#0" arrivalPos="117.96" />
    </person>
    <person id="se405" depart="30760.62" departPos="random">
        <walk edges="-196520689#0 196520689#0 740109140" busStop="vbs_ski_corviglia_valley_chasellas" />
        <ride from="740109140" to="1050853710" busStop="1063.TA.92-1-N-j24-1.89.H.29" lines="taxi" /> 
        <walk edges="1050853710" arrivalPos="4.27" />
    </person>
    <person id="se627" depart="30804.99" departPos="random">
        <walk edges="-170952322#0 170952322#1" busStop="2.TA.92-4-Q-j24-1.8.R.13" /> 
        <ride from="170952322#1" to="519913265#1" busStop="vbs_St_Moritz_extra_cap" lines="taxi" />
        <walk edges="519913265#1" arrivalPos="18.32" />
    </person>
    <person id="se513" depart="30848.98" departPos="random">
        <walk edges="-47578286 120840712#0 903531446 519913265#0 519913265#1" busStop="vbs_St_Moritz_extra_cap" />
        <ride from="519913265#1" to="-170940321#0" busStop="1679.TA.92-1-N-j24-1.90.R.1" lines="taxi" /> 
        <walk edges="-170940321#0 -175791806#1 175791806#0 1158102646 -175791807#1" arrivalPos="74.60" />
    </person>
    <person id="se559" depart="30852.80" departPos="random">
        <walk edges="268146971#4 -268146971#3 -268146971#2" busStop="2386.TA.92-1-N-j24-1.93.R.3" /> 
        <ride from="-268146971#2" to="170952322#1" busStop="2.TA.92-4-Q-j24-1.8.R.13" lines="taxi" /> 
        <walk edges="170952322#1 382202904#0 -382202904#1 -382202904#2 914487471#0" arrivalPos="0.12" />
    </person>
    <person id="se404" depart="30870.22" departPos="random">
        <walk edges="96461184#0 -30957915" busStop="1679.TA.92-1-N-j24-1.90.R.3" /> 
        <ride from="-30957915" to="1086005533" busStop="2467.TA.92-1-N-j24-1.95.R.3" lines="taxi" /> 
        <walk edges="1086005533 1136237769" arrivalPos="3.95" />
    </person>
    <person id="se65" depart="30915.84" departPos="random">
        <walk edges="-430248876 -123066701#0 -123066701#1 123066701#2 -123066701#3 -123066701#4 1458236898 1083273110#1 -1083273110#2 -1083273110#3 -1085583302#0 1083273109 1083299692 123066460 1083273108#2" busStop="48.TA.96-290-0-j24-1.17.R.10" /> 
        <ride from="1083273108#2" to="1068735330#1" busStop="1136.TA.92-10-J-j24-1.22.R.13" lines="taxi" /> 
        <walk edges="1068735330#1 30952483#0 -30952483#1 30952483#2 30952483#3 -30952483#4" arrivalPos="4.58" />
    </person>
    <person id="se26" depart="30916.75" departPos="random">
        <walk edges="-70702075#1 70702075#3 -70702075#4 -70702075#5 -315159496#0" busStop="1136.TA.92-10-J-j24-1.22.R.1" /> 
        <ride from="-315159496#0" to="-894849663" busStop="2091.TA.92-6-I-j24-1.16.H.35" lines="taxi" /> 
        <walk edges="-894849663 242857963" arrivalPos="7.31" />
    </person>
    <person id="se182" depart="30934.27" departPos="random">
        <walk edges="56085325#2 -56085325#1 56085325#0 -52959697#3 -52959697#2 52959697#1 52959697#0 1201541125 -1472605488#0 1472605488#1 1472605488#2" busStop="1136.TA.92-10-J-j24-1.22.R.6" /> 
        <ride from="1472605488#2" to="-1083273108#2" busStop="16.TA.96-290-0-j24-1.26.H.8" lines="taxi" /> 
        <walk edges="-1083273108#2 123066460 1083299692" arrivalPos="11.20" />
    </person>
    <person id="se53" depart="30960.73" departPos="random">
        <walk edges="430248865#11 -430248865#10" busStop="16.TA.96-290-0-j24-1.26.H.4" /> 
        <ride from="-430248865#10" to="-96461182#0" busStop="459.TA.92-10-J-j24-1.71.H.28" lines="taxi" /> 
        <walk edges="-96461182#0" arrivalPos="14.19" />
    </person>
    <person id="se149" depart="30962.87" departPos="random">
        <walk edges="-171771447#5 171771447#4 -171771447#3 171771447#2 171771447#1 -41157381 120839520 62065386" busStop="1.TA.96-290-3-j24-1.1.H.0" /> 
        <ride from="62065386" to="519913261#1" busStop="154.TA.92-1-N-j24-1.77.H.0" lines="taxi" /> 
        <walk edges="519913261#1" arrivalPos="16.44" />
    </person>
    <person id="se328" depart="31021.78" departPos="random">
        <walk edges="26167684#4 -26167684#3 -26167684#2 -26167684#1 26167684#0 170952324#0 -170952324#1" busStop="1008.TA.92-1-N-j24-1.88.H.23" /> 
        <ride from="-170952324#1" to="-501346489#2" busStop="16.TA.96-290-0-j24-1.26.H.1" lines="taxi" /> 
        <walk edges="-501346489#2 -501346489#1 501346489#0" arrivalPos="2.70" />
    </person>
    <person id="se310" depart="31067.71" departPos="random">
        <walk edges="915198665#1 915198670 915198669 769993301#0 19724261 170952324#0 -170952324#1" busStop="1008.TA.92-1-N-j24-1.88.H.23" /> 
        <ride from="-170952324#1" to="175833048" busStop="vbs_mp1" lines="taxi" />
        <walk edges="175833048 -307930214 1068735315#1 -1068735315#0 -1085975993 349887484 507648839 175833050" arrivalPos="635.31" />
    </person>
    <person id="se31" depart="31079.74" departPos="random">
        <walk edges="502426858 633986854#1" busStop="36.TA.96-290-0-j24-1.27.R.10" /> 
        <ride from="633986854#1" to="-96461182#0" busStop="459.TA.92-10-J-j24-1.71.H.28" lines="taxi" /> 
        <walk edges="-96461182#0 96461182#1 -96461182#2 -66846274 14014133#2 14014133#3 -56240279#4 56240279#2 -56240279#1" arrivalPos="4.67" />
    </person>
    <person id="se319" depart="31085.33" departPos="random">
        <walk edges="88717666#1 96461180#5" busStop="114.TA.92-9-H-j24-1.10.H.8" /> 
        <ride from="96461180#5" to="894576903" busStop="459.TA.92-10-J-j24-1.71.H.34" lines="taxi" /> 
        <walk edges="894576903 -1136143562#1 1136143562#0 185845833#3 -185845833#1 -185845833#0 501346488#2" arrivalPos="70.59" />
    </person>
    <person id="se25" depart="31113.27" departPos="random">
        <walk edges="1426892794#1 1426892794#2 1426892794#3" busStop="16.TA.96-290-0-j24-1.26.H.16" /> 
        <ride from="1426892794#3" to="209755663#3" busStop="1136.TA.92-10-J-j24-1.22.R.5" lines="taxi" /> 
        <walk edges="209755663#3 209755663#2 -209755663#0 1317098557 59637812#0 59637812#1 -59637812#2 59637812#3" arrivalPos="24.40" />
    </person>
    <person id="se389" depart="31144.55" departPos="random">
        <walk edges="-120840705#7 120840705#7 -120840705#6 120840705#5 -120840705#4 -120840705#3 120840705#2 120840705#1 -1113136564#1 1113136564#0" busStop="1.TA.92-4-Q-j24-1.7.R.12" /> 
        <ride from="1113136564#0" to="209755663#3" busStop="1136.TA.92-10-J-j24-1.22.R.5" lines="taxi" /> 
        <walk edges="209755663#3 209755663#2 -209755663#0 1317098557 59637812#0 59637812#1 -59637812#2 -59637812#3 59637812#4 -59637812#5 59637812#7 -59637812#8 59637812#9 59637812#10" arrivalPos="3.73" />
    </person>
    <person id="se81" depart="31201.73" departPos="random">
        <walk edges="-391653980#2 -391653980#3 391653980#5 -1324238128 890169725#3 -890169725#2 890169725#1" busStop="48.TA.96-290-0-j24-1.17.R.9" /> 
        <ride from="890169725#1" to="1068735330#7" busStop="2386.TA.92-1-N-j24-1.93.R.0" lines="taxi" /> 
        <walk edges="1068735330#7 30984008 -30984012#2 -30984012#3 30984006" arrivalPos="41.06" />
    </person>
    <person id="se171" depart="31305.82" departPos="random">
        <walk edges="-31060929#1 31060929#0 1169006585 1083276373 -502426855#2 502426855#1" busStop="36.TA.96-290-0-j24-1.27.R.5" /> 
        <ride from="502426855#1" to="519913257#1" busStop="1.TA.92-4-Q-j24-1.7.R.13" lines="taxi" /> 
        <walk edges="519913257#1" arrivalPos="15.65" />
    </person>
    <person id="se4" depart="31307.60" departPos="random">
        <walk edges="-391657351 1006709161 -120829163#0 -120829163#1 -1083351550#0" busStop="16.TA.96-290-0-j24-1.26.H.11" /> 
        <ride from="-1083351550#0" to="120829159" busStop="1.TA.96-290-3-j24-1.1.H.4" lines="taxi" /> 
        <walk edges="120829159 1083356001 614559903 171771430 -171771449#3 171771449#2" arrivalPos="23.43" />
    </person>
    <person id="se152" depart="31417.42" departPos="random">
        <walk edges="-890169725#1 890169725#1" busStop="48.TA.96-290-0-j24-1.17.R.9" /> 
        <ride from="890169725#1" to="519913261#1" busStop="154.TA.92-1-N-j24-1.77.H.0" lines="taxi" /> 
        <walk edges="519913261#1" arrivalPos="1.90" />
    </person>
    <person id="se305" depart="31443.76" departPos="random">
        <walk edges="1115020156 1005170350 -152517715#3" busStop="1008.TA.92-1-N-j24-1.88.H.18" /> 