<?xml version="1.0" encoding="UTF-8"?>

<!-- generated by Eclipse SUMO duarouter Version 1.12.0
<configuration xmlns:xsi="http://www.w3.org/2001/XMLSchema-instance" xsi:noNamespaceSchemaLocation="http://sumo.dlr.de/xsd/duarouterConfiguration.xsd">

    <input>
        <net-file value="D:\Dokumente\sumo\maloja\simple.net.xml"/>
        <additional-files value="D:\Dokumente\sumo\maloja\01_schools\taz_maloja_school_areas_filtered.add.xml,D:\Dokumente\sumo\maloja\01_schools\taz_maloja_schools.add.xml,D:\Dokumente\sumo\maloja\03_bus\virtualstop.add.xml,D:\Dokumente\sumo\maloja\03_bus\02_August\vtypes.xml,D:\Dokumente\sumo\maloja\03_bus\02_August\gtfs_pt_stops.add.xml"/>
        <route-files value="D:\Dokumente\sumo\maloja\01_schools\persontrips_maloja_school_modded_with_parents_bus_taxi.xml,D:\Dokumente\sumo\maloja\03_bus\02_August\gtfs_pt_vehicles.add.xml"/>
    </input>

    <output>
        <output-file value="D:\Dokumente\sumo\maloja\01_schools\persontrips_maloja_school_resolved_summer_bus_taxi_modded_with_parents_w15.rou.xml"/>
        <alternatives-output value="D:\Dokumente\sumo\maloja\01_schools\persontrips_maloja_school_resolved_summer_bus_taxi_modded_with_parents_w15.rou.alt.xml"/>
    </output>

    <processing>
        <persontrip.transfer.taxi-walk value="ptStops"/>
        <persontrip.transfer.walk-taxi value="ptStops"/>
        <persontrip.taxi.waiting-time value="900"/>
    </processing>

    <report>
        <verbose value="true"/>
    </report>

</configuration>
-->

<routes xmlns:xsi="http://www.w3.org/2001/XMLSchema-instance" xsi:noNamespaceSchemaLocation="http://sumo.dlr.de/xsd/routes_file.xsd">
    <person id="p79" depart="23447.01" departPos="random">
        <ride from="741319024#2" to="890169725#1" arrivalPos="3.09" lines="taxi"/>
        <walk edges="890169725#1 -890169723#0 -890169723#1 890169723#2 -1036672006#0 -1036672006#1 391653985#1 1036672007 -391653993#2 -338400631#1 338400631#0 -338400630#3 -338400630#2" arrivalPos="28.86"/>
    </person>
    <person id="s79" depart="23447.01" departPos="random">
        <ride from="741319024#2" to="890169725#1" arrivalPos="3.09" lines="taxi"/>
        <walk edges="890169725#1 -890169723#0 -890169723#1 890169723#2 -1036672006#0 -1036672006#1 391653985#1 1036672007 -391653993#2 -338400631#1 338400631#0 -338400630#3 -338400630#2" arrivalPos="23.08"/>
    </person>
    <person id="s48" depart="23521.78" departPos="random">
        <ride from="695907287#1" to="-502426852#0" arrivalPos="73.49" lines="taxi"/>
        <walk edges="-502426852#0 -502426852#1 502426852#2 -502426852#3 -518702669 -208216585#0" arrivalPos="10.16"/>
    </person>
    <person id="p74" depart="23569.75" departPos="random">
        <ride from="-222975197#1" to="890169725#1" arrivalPos="3.09" lines="taxi"/>
        <walk edges="890169725#1 -890169723#0 -890169723#1 890169723#2 -1036672006#0 -1036672006#1 391653985#1 1036672007 -391653993#2 -338400631#1 338400631#0 -338400630#3 -338400630#2" arrivalPos="15.92"/>
    </person>
    <person id="s74" depart="23569.75" departPos="random">
        <ride from="-222975197#1" to="890169725#1" arrivalPos="3.09" lines="taxi"/>
        <walk edges="890169725#1 -890169723#0 -890169723#1 890169723#2 -1036672006#0 -1036672006#1 391653985#1 1036672007 -391653993#2 -338400631#1 338400631#0 -338400630#3 -338400630#2" arrivalPos="19.11"/>
    </person>
    <person id="p410" depart="23600.43" departPos="random">
        <ride from="72562019#3" to="-819942944#4" arrivalPos="39.13" lines="taxi"/>
        <walk edges="-819942944#4 -819945212 -1113054109 152331922#0 -152385711 819945213" arrivalPos="0.92"/>
    </person>
    <person id="s410" depart="23600.43" departPos="random">
        <ride from="72562019#3" to="-819942944#4" arrivalPos="39.13" lines="taxi"/>
        <walk edges="-819942944#4 -819945212 -1113054109 152331922#0 -152385711 819945213" arrivalPos="15.67"/>
    </person>
    <person id="s47" depart="23601.67" departPos="random">
        <ride from="-315159485#0" to="-502426852#0" arrivalPos="73.49" lines="taxi"/>
        <walk edges="-502426852#0 -502426852#1 502426852#2 -502426852#3 -518702669 -208216585#0" arrivalPos="55.29"/>
    </person>
    <person id="s51" depart="23607.72" departPos="random">
        <ride from="170952338#3" to="-502426852#0" arrivalPos="73.49" lines="taxi"/>
        <walk edges="-502426852#0 -502426852#1 502426852#2 -502426852#3 -518702669 -208216585#0" arrivalPos="121.80"/>
    </person>
    <person id="p175" depart="23615.86" departPos="random">
        <ride from="-72561717#0" to="-819942944#4" arrivalPos="39.13" lines="taxi"/>
        <walk edges="-819942944#4 -819945212 -1113054109 152331922#0 -152385711 819945213" arrivalPos="15.71"/>
    </person>
    <person id="s175" depart="23615.86" departPos="random">
        <ride from="-72561717#0" to="-819942944#4" arrivalPos="39.13" lines="taxi"/>
        <walk edges="-819942944#4 -819945212 -1113054109 152331922#0 -152385711 819945213" arrivalPos="0.13"/>
    </person>
    <person id="s332" depart="23620.65" departPos="random">
        <ride from="915198685#1" to="519913261#1" arrivalPos="15.00" lines="taxi"/>
        <walk edges="519913261#1" arrivalPos="19.08"/>
    </person>
    <person id="p218" depart="23629.61" departPos="random">
        <ride from="116576984#0" to="-819942944#4" arrivalPos="39.13" lines="taxi"/>
        <walk edges="-819942944#4 -819945212 -1113054109 152331922#0 -152385711 819945213" arrivalPos="9.83"/>
    </person>
    <person id="s218" depart="23629.61" departPos="random">
        <ride from="116576984#0" to="-819942944#4" arrivalPos="39.13" lines="taxi"/>
        <walk edges="-819942944#4 -819945212 -1113054109 152331922#0 -152385711 819945213" arrivalPos="9.53"/>
    </person>
    <person id="s194" depart="23641.82" departPos="random">
        <ride from="30957922" to="519913263#1" arrivalPos="15.00" lines="taxi"/>
        <walk edges="519913263#1" arrivalPos="16.05"/>
    </person>
    <person id="p375" depart="23645.88" departPos="random">
        <ride from="30957914#0" to="25412019" arrivalPos="14.90" lines="taxi"/>
        <walk edges="25412019 152337234#0 152337234#1" arrivalPos="6.30"/>
    </person>
    <person id="s375" depart="23645.88" departPos="random">
        <ride from="30957914#0" to="25412019" arrivalPos="14.90" lines="taxi"/>
        <walk edges="25412019 152337234#0 152337234#1" arrivalPos="1.44"/>
    </person>
    <person id="p441" depart="23665.77" departPos="random">
        <ride from="189023059#1" to="-819942944#4" arrivalPos="39.13" lines="taxi"/>
        <walk edges="-819942944#4 -819945212 -1113054109 152331922#0 -152385711 819945213" arrivalPos="18.46"/>
    </person>
    <person id="s441" depart="23665.77" departPos="random">
        <ride from="189023059#1" to="-819942944#4" arrivalPos="39.13" lines="taxi"/>
        <walk edges="-819942944#4 -819945212 -1113054109 152331922#0 -152385711 819945213" arrivalPos="6.79"/>
    </person>
    <person id="s124" depart="23721.07" departPos="random">
        <ride from="56085325#2" to="519913261#1" arrivalPos="15.00" lines="taxi"/>
        <walk edges="519913261#1" arrivalPos="19.38"/>
    </person>
    <person id="s300" depart="23740.73" departPos="random">
        <ride from="-152517715#0" to="519913263#1" arrivalPos="15.00" lines="taxi"/>
        <walk edges="519913263#1" arrivalPos="1.31"/>
    </person>
    <person id="s179" depart="23742.87" departPos="random">
        <ride from="-185833040#0" to="519913265#1" arrivalPos="10.00" lines="taxi"/>
        <walk edges="519913265#1" arrivalPos="14.07"/>
    </person>
    <person id="p18" depart="23745.66" departPos="random">
        <ride from="170952338#3" to="-977972910" arrivalPos="24.86" lines="taxi"/>
        <walk edges="-977972910 -170952349#1 170952349#0 1068729371#2 -1068729371#1" arrivalPos="16.66"/>
    </person>
    <person id="s18" depart="23745.66" departPos="random">
        <ride from="170952338#3" to="977972909" arrivalPos="68.09" lines="taxi"/>
        <walk edges="977972909 -315159485#0 -315159485#1 315159485#2 315159485#3 315159485#4 -315159485#5 -315159485#6 1068729371#0 -1068729371#1" arrivalPos="34.36"/>
    </person>
    <person id="p389" depart="23755.36" departPos="random">
        <ride from="-189023053#1" to="-819942944#4" arrivalPos="39.13" lines="taxi"/>
        <walk edges="-819942944#4 -819945212 -1113054109 152331922#0 -152385711 819945213" arrivalPos="19.79"/>
    </person>
    <person id="s389" depart="23755.36" departPos="random">
        <ride from="-189023053#1" to="-819942944#4" arrivalPos="39.13" lines="taxi"/>
        <walk edges="-819942944#4 -819945212 -1113054109 152331922#0 -152385711 819945213" arrivalPos="17.38"/>
    </person>
    <person id="s92" depart="23770.79" departPos="random">
        <ride from="1324238128" to="-502426852#0" arrivalPos="73.49" lines="taxi"/>
        <walk edges="-502426852#0 -502426852#1 502426852#2 -502426852#3 -518702669 -208216585#0" arrivalPos="198.28"/>
    </person>
    <person id="p365" depart="23791.80" departPos="random">
        <ride from="191253662#7" to="25412019" arrivalPos="14.90" lines="taxi"/>
        <walk edges="25412019 152337234#0 152337234#1" arrivalPos="9.45"/>
    </person>
    <person id="s365" depart="23791.80" departPos="random">
        <ride from="191253662#7" to="25412019" arrivalPos="14.90" lines="taxi"/>
        <walk edges="25412019 152337234#0 152337234#1" arrivalPos="12.97"/>
    </person>
    <person id="s328" depart="23793.73" departPos="random">
        <ride from="543256263#1" to="519913257#1" arrivalPos="15.00" lines="taxi"/>
        <walk edges="519913257#1" arrivalPos="6.77"/>
    </person>
    <person id="p77" depart="23797.95" departPos="random">
        <ride from="-391661587#1" to="890169725#1" arrivalPos="3.09" lines="taxi"/>
        <walk edges="890169725#1 -890169723#0 -890169723#1 890169723#2 -1036672006#0 -1036672006#1 391653985#1 1036672007 -391653993#2 -338400631#1 338400631#0 -338400630#3 -338400630#2" arrivalPos="1.05"/>
    </person>
    <person id="s77" depart="23797.95" departPos="random">
        <ride from="-391661587#1" to="890169725#1" arrivalPos="3.09" lines="taxi"/>
        <walk edges="890169725#1 -890169723#0 -890169723#1 890169723#2 -1036672006#0 -1036672006#1 391653985#1 1036672007 -391653993#2 -338400631#1 338400631#0 -338400630#3 -338400630#2" arrivalPos="9.77"/>
    </person>
    <person id="s338" depart="23811.73" departPos="random">
        <ride from="-391952926#3" to="519913261#1" arrivalPos="15.00" lines="taxi"/>
        <walk edges="519913261#1" arrivalPos="21.67"/>
    </person>
    <person id="p396" depart="23816.57" departPos="random">
        <ride from="-1116543561#0" to="-819942944#4" arrivalPos="39.13" lines="taxi"/>
        <walk edges="-819942944#4 -819945212 -1113054109 152331922#0 -152385711 819945213" arrivalPos="3.35"/>
    </person>
    <person id="s396" depart="23816.57" departPos="random">
        <ride from="-1116543561#0" to="-819942944#4" arrivalPos="39.13" lines="taxi"/>
        <walk edges="-819942944#4 -819945212 -1113054109 152331922#0 -152385711 819945213" arrivalPos="20.16"/>
    </person>
    <person id="s61" depart="23817.29" departPos="random">
        <ride from="-349888201#0" to="519913257#1" arrivalPos="15.00" lines="taxi"/>
        <walk edges="519913257#1" arrivalPos="0.85"/>
    </person>
    <person id="s257" depart="23820.68" departPos="random">
        <ride from="1188934794" to="519913263#1" arrivalPos="15.00" lines="taxi"/>
        <walk edges="519913263#1" arrivalPos="19.41"/>
    </person>
    <person id="s106" depart="23824.84" departPos="random">
        <ride from="171771449#2" to="519913263#1" arrivalPos="15.00" lines="taxi"/>
        <walk edges="519913263#1" arrivalPos="9.39"/>
    </person>
    <person id="s287" depart="23862.72" departPos="random">
        <ride from="-196520689#2" to="519913261#1" arrivalPos="15.00" lines="taxi"/>
        <walk edges="519913261#1" arrivalPos="3.67"/>
    </person>
    <person id="p166" depart="23864.16" departPos="random">
        <ride from="-56195874#7" to="-819942944#4" arrivalPos="39.13" lines="taxi"/>
        <walk edges="-819942944#4 -819945212 -1113054109 152331922#0 -152385711 819945213" arrivalPos="2.64"/>
    </person>
    <person id="s166" depart="23864.16" departPos="random">
        <ride from="-56195874#7" to="-819942944#4" arrivalPos="39.13" lines="taxi"/>
        <walk edges="-819942944#4 -819945212 -1113054109 152331922#0 -152385711 819945213" arrivalPos="8.67"/>
    </person>
    <person id="s308" depart="23909.53" departPos="random">
        <ride from="152390930#1" to="519913265#1" arrivalPos="10.00" lines="taxi"/>
        <walk edges="519913265#1" arrivalPos="26.45"/>
    </person>
    <person id="s346" depart="23913.50" departPos="random">
        <ride from="127791073" to="519913263#1" arrivalPos="15.00" lines="taxi"/>
        <walk edges="519913263#1" arrivalPos="7.48"/>
    </person>
    <person id="s196" depart="23941.29" departPos="random">
        <ride from="187633169#0" to="519913257#1" arrivalPos="15.00" lines="taxi"/>
        <walk edges="519913257#1" arrivalPos="6.39"/>
    </person>
    <person id="s289" depart="23948.04" departPos="random">
        <ride from="-152385705#2" to="519913261#1" arrivalPos="15.00" lines="taxi"/>
        <walk edges="519913261#1" arrivalPos="4.76"/>
    </person>
    <person id="s37" depart="23955.59" departPos="random">
        <ride from="320549344" to="-502426852#0" arrivalPos="73.49" lines="taxi"/>
        <walk edges="-502426852#0 -502426852#1 502426852#2 -502426852#3 -518702669 -208216585#0" arrivalPos="127.69"/>
    </person>
    <person id="s178" depart="23955.69" departPos="random">
        <ride from="-31061886#4" to="519913263#1" arrivalPos="15.00" lines="taxi"/>
        <walk edges="519913263#1" arrivalPos="6.84"/>
    </person>
    <person id="p386" depart="23955.79" departPos="random">
        <ride from="-191377555" to="-819942944#4" arrivalPos="39.13" lines="taxi"/>
        <walk edges="-819942944#4 -819945212 -1113054109 152331922#0 -152385711 819945213" arrivalPos="17.11"/>
    </person>
    <person id="s386" depart="23955.79" departPos="random">
        <ride from="-191377555" to="-819942944#4" arrivalPos="39.13" lines="taxi"/>
        <walk edges="-819942944#4 -819945212 -1113054109 152331922#0 -152385711 819945213" arrivalPos="1.88"/>
    </person>
    <person id="s98" depart="23972.23" departPos="random">
        <ride from="222703956#0" to="-502426852#0" arrivalPos="73.49" lines="taxi"/>
        <walk edges="-502426852#0 -502426852#1 502426852#2 -502426852#3 -518702669 -208216585#0" arrivalPos="149.25"/>
    </person>
    <person id="s50" depart="23987.91" departPos="random">
        <ride from="70702075#1" to="-502426852#0" arrivalPos="73.49" lines="taxi"/>
        <walk edges="-502426852#0 -502426852#1 502426852#2 -502426852#3 -518702669 -208216585#0" arrivalPos="159.84"/>
    </person>
    <person id="s115" depart="23992.10" departPos="random">
        <ride from="391653990#0" to="519913261#1" arrivalPos="15.00" lines="taxi"/>
        <walk edges="519913261#1" arrivalPos="16.90"/>
    </person>
    <person id="s63" depart="24017.57" departPos="random">
        <ride from="-1136143562#0" to="519913265#1" arrivalPos="10.00" lines="taxi"/>
        <walk edges="519913265#1" arrivalPos="18.96"/>
    </person>
    <person id="p400" depart="24024.75" departPos="random">
        <ride from="30984018#0" to="-819942944#4" arrivalPos="39.13" lines="taxi"/>
        <walk edges="-819942944#4 -819945212 -1113054109 152331922#0 -152385711 819945213" arrivalPos="19.71"/>
    </person>
    <person id="s400" depart="24024.75" departPos="random">
        <ride from="30984018#0" to="-819942944#4" arrivalPos="39.13" lines="taxi"/>
        <walk edges="-819942944#4 -819945212 -1113054109 152331922#0 -152385711 819945213" arrivalPos="20.24"/>
    </person>
    <person id="s320" depart="24035.18" departPos="random">
        <ride from="188727260#1" to="519913265#1" arrivalPos="10.00" lines="taxi"/>
        <walk edges="519913265#1" arrivalPos="8.44"/>
    </person>
    <person id="s440" depart="24037.02" departPos="random">
        <ride from="-894841758" to="-819942944#4" arrivalPos="39.13" lines="taxi"/>
        <walk edges="-819942944#4 -819945212 -1113054109 152331922#0 -152385711 819945213" arrivalPos="10.38"/>
    </person>
    <person id="s271" depart="24075.61" departPos="random">
        <ride from="543256262" to="519913257#1" arrivalPos="15.00" lines="taxi"/>
        <walk edges="519913257#1" arrivalPos="16.60"/>
    </person>
    <person id="s139" depart="24076.92" departPos="random">
        <ride from="19725986#1" to="519913265#1" arrivalPos="10.00" lines="taxi"/>
        <walk edges="519913265#1" arrivalPos="4.62"/>
    </person>
    <person id="s250" depart="24100.29" departPos="random">
        <ride from="152517443#0" to="519913257#1" arrivalPos="15.00" lines="taxi"/>
        <walk edges="519913257#1" arrivalPos="27.33"/>
    </person>
    <person id="p348" depart="24117.79" departPos="random">
        <ride from="-152517715#0" to="25412019" arrivalPos="14.90" lines="taxi"/>
        <walk edges="25412019 152337234#0 152337234#1" arrivalPos="4.37"/>
    </person>
    <person id="s348" depart="24117.79" departPos="random">
        <ride from="-152517715#0" to="25412019" arrivalPos="14.90" lines="taxi"/>
        <walk edges="25412019 152337234#0 152337234#1" arrivalPos="15.28"/>
    </person>
    <person id="s447" depart="24168.65" departPos="random">
        <ride from="519913261#1" to="-819942944#4" arrivalPos="39.13" lines="taxi"/>
        <walk edges="-819942944#4 -819945212 -1113054109 152331922#0 -152385711 819945213" arrivalPos="3.20"/>
    </person>
    <person id="s235" depart="24221.93" departPos="random">
        <ride from="-1005170350" to="519913265#1" arrivalPos="10.00" lines="taxi"/>
        <walk edges="519913265#1" arrivalPos="0.76"/>
    </person>
    <person id="s184" depart="24226.70" departPos="random">
        <ride from="25475987#2" to="519913265#1" arrivalPos="10.00" lines="taxi"/>
        <walk edges="519913265#1" arrivalPos="7.65"/>
    </person>
    <person id="s253" depart="24237.30" departPos="random">
        <ride from="-30984020" to="519913265#1" arrivalPos="10.00" lines="taxi"/>
        <walk edges="519913265#1" arrivalPos="14.99"/>
    </person>
    <person id="s132" depart="24245.77" departPos="random">
        <ride from="-175833047#1" to="519913265#1" arrivalPos="10.00" lines="taxi"/>
        <walk edges="519913265#1" arrivalPos="25.45"/>
    </person>
    <person id="s233" depart="24290.10" departPos="random">
        <ride from="-26167908#4" to="519913261#1" arrivalPos="15.00" lines="taxi"/>
        <walk edges="519913261#1" arrivalPos="1.90"/>
    </person>
    <person id="s192" depart="24290.10" departPos="random">
        <ride from="612250570#2" to="519913257#1" arrivalPos="15.00" lines="taxi"/>
        <walk edges="519913257#1" arrivalPos="5.12"/>
    </person>
    <person id="s395" depart="24302.01" departPos="random">
        <ride from="188730896#6" to="-819942944#4" arrivalPos="39.13" lines="taxi"/>
        <walk edges="-819942944#4 -819945212 -1113054109 152331922#0 -152385711 819945213" arrivalPos="20.92"/>
    </person>
    <person id="s109" depart="24323.23" departPos="random">
        <ride from="-171771447#3" to="519913263#1" arrivalPos="15.00" lines="taxi"/>
        <walk edges="519913263#1" arrivalPos="8.89"/>
    </person>
    <person id="s399" depart="24328.89" departPos="random">
        <ride from="188727260#0" to="-819942944#4" arrivalPos="39.13" lines="taxi"/>
        <walk edges="-819942944#4 -819945212 -1113054109 152331922#0 -152385711 819945213" arrivalPos="7.15"/>
    </person>
    <person id="s173" depart="24337.38" departPos="random">
        <ride from="-239035118#1" to="-819942944#4" arrivalPos="39.13" lines="taxi"/>
        <walk edges="-819942944#4 -819945212 -1113054109 152331922#0 -152385711 819945213" arrivalPos="1.81"/>
    </person>
    <person id="s169" depart="24373.10" departPos="random">
        <ride from="56240189#3" to="-819942944#4" arrivalPos="39.13" lines="taxi"/>
        <walk edges="-819942944#4 -819945212 -1113054109 152331922#0 -152385711 819945213" arrivalPos="11.96"/>
    </person>
    <person id="s122" depart="24398.62" departPos="random">
        <ride from="890169724#2" to="519913261#1" arrivalPos="15.00" lines="taxi"/>
        <walk edges="519913261#1" arrivalPos="5.87"/>
    </person>
    <person id="s224" depart="24406.70" departPos="random">
        <ride from="-116077719#1" to="-819942944#4" arrivalPos="39.13" lines="taxi"/>
        <walk edges="-819942944#4 -819945212 -1113054109 152331922#0 -152385711 819945213" arrivalPos="3.81"/>
    </person>
    <person id="s113" depart="24425.76" departPos="random">
        <ride from="1083276369#2" to="519913263#1" arrivalPos="15.00" lines="taxi"/>
        <walk edges="519913263#1" arrivalPos="1.33"/>
    </person>
    <person id="s439" depart="24455.87" departPos="random">
        <ride from="-154770319#2" to="-819942944#4" arrivalPos="39.13" lines="taxi"/>
        <walk edges="-819942944#4 -819945212 -1113054109 152331922#0 -152385711 819945213" arrivalPos="1.69"/>
    </person>
    <person id="s112" depart="24461.48" departPos="random">
        <ride from="-391653986#2" to="519913263#1" arrivalPos="15.00" lines="taxi"/>
        <walk edges="519913263#1" arrivalPos="20.46"/>
    </person>
    <person id="s430" depart="24479.46" departPos="random">
        <ride from="-72562019#3" to="-819942944#4" arrivalPos="39.13" lines="taxi"/>
        <walk edges="-819942944#4 -819945212 -1113054109 152331922#0 -152385711 819945213" arrivalPos="7.42"/>
    </person>
    <person id="s117" depart="24503.27" departPos="random">
        <ride from="1085583302#0" to="519913261#1" arrivalPos="15.00" lines="taxi"/>
        <walk edges="519913261#1" arrivalPos="8.22"/>
    </person>
    <person id="p23" depart="24518.06" departPos="random">
        <ride from="-1083273106" to="-977972910" arrivalPos="24.86" lines="taxi"/>
        <walk edges="-977972910 -170952349#1 170952349#0 1068729371#2 -1068729371#1" arrivalPos="11.52"/>
    </person>
    <person id="s23" depart="24518.06" departPos="random">
        <ride from="-1083273106" to="977972909" arrivalPos="68.09" lines="taxi"/>
        <walk edges="977972909 -315159485#0 -315159485#1 315159485#2 315159485#3 315159485#4 -315159485#5 -315159485#6 1068729371#0 -1068729371#1" arrivalPos="36.81"/>
    </person>
    <person id="s336" depart="24548.45" departPos="random">
        <ride from="1068735332#3" to="519913261#1" arrivalPos="15.00" lines="taxi"/>
        <walk edges="519913261#1" arrivalPos="12.00"/>
    </person>
    <person id="s36" depart="24556.41" departPos="random">
        <ride from="68115532" to="-502426852#0" arrivalPos="73.49" lines="taxi"/>
        <walk edges="-502426852#0 -502426852#1 502426852#2 -502426852#3 -518702669 -208216585#0" arrivalPos="137.40"/>
    </person>
    <person id="s174" depart="24568.12" departPos="random">
        <ride from="256959702#1" to="-819942944#4" arrivalPos="39.13" lines="taxi"/>
        <walk edges="-819942944#4 -819945212 -1113054109 152331922#0 -152385711 819945213" arrivalPos="8.22"/>
    </person>
    <person id="s268" depart="24579.20" departPos="random">
        <ride from="188730896#4" to="519913261#1" arrivalPos="15.00" lines="taxi"/>
        <walk edges="519913261#1" arrivalPos="14.54"/>
    </person>
    <person id="s99" depart="24592.41" departPos="random">
        <ride from="338400632#2" to="-502426852#0" arrivalPos="73.49" lines="taxi"/>
        <walk edges="-502426852#0 -502426852#1 502426852#2 -502426852#3 -518702669 -208216585#0" arrivalPos="184.41"/>
    </person>
    <person id="s415" depart="24598.43" departPos="random">
        <ride from="120840712#1" to="-819942944#4" arrivalPos="39.13" lines="taxi"/>
        <walk edges="-819942944#4 -819945212 -1113054109 152331922#0 -152385711 819945213" arrivalPos="12.33"/>
    </person>
    <person id="s168" depart="24615.75" departPos="random">
        <ride from="96461185" to="-819942944#4" arrivalPos="39.13" lines="taxi"/>
        <walk edges="-819942944#4 -819945212 -1113054109 152331922#0 -152385711 819945213" arrivalPos="8.79"/>
    </person>
    <person id="s80" depart="24623.00" departPos="random">
        <ride from="429497062#0" to="890169725#1" arrivalPos="3.09" lines="taxi"/>
        <walk edges="890169725#1 -890169723#0 -890169723#1 890169723#2 -1036672006#0 -1036672006#1 391653985#1 1036672007 -391653993#2 -338400631#1 338400631#0 -338400630#3 -338400630#2" arrivalPos="11.83"/>
    </person>
    <person id="s188" depart="24636.36" departPos="random">
        <ride from="116576984#0" to="519913265#1" arrivalPos="10.00" lines="taxi"/>
        <walk edges="519913265#1" arrivalPos="26.78"/>
    </person>
    <person id="s438" depart="24637.50" departPos="random">
        <ride from="89724876#1" to="-819942944#4" arrivalPos="39.13" lines="taxi"/>
        <walk edges="-819942944#4 -819945212 -1113054109 152331922#0 -152385711 819945213" arrivalPos="0.50"/>
    </person>
    <person id="s247" depart="24653.53" departPos="random">
        <ride from="-152385705#0" to="519913265#1" arrivalPos="10.00" lines="taxi"/>
        <walk edges="519913265#1" arrivalPos="8.30"/>
    </person>
    <person id="s57" depart="24656.12" departPos="random">
        <ride from="1136143576" to="519913265#1" arrivalPos="10.00" lines="taxi"/>
        <walk edges="519913265#1" arrivalPos="2.87"/>
    </person>
    <person id="s167" depart="24661.83" departPos="random">
        <ride from="-209755663#0" to="-819942944#4" arrivalPos="39.13" lines="taxi"/>
        <walk edges="-819942944#4 -819945212 -1113054109 152331922#0 -152385711 819945213" arrivalPos="18.46"/>
    </person>
    <person id="s72" depart="24669.21" departPos="random">
        <ride from="-890753069" to="890169725#1" arrivalPos="3.09" lines="taxi"/>
        <walk edges="890169725#1 -890169723#0 -890169723#1 890169723#2 -1036672006#0 -1036672006#1 391653985#1 1036672007 -391653993#2 -338400631#1 338400631#0 -338400630#3 -338400630#2" arrivalPos="20.25"/>
    </person>
    <person id="p360" depart="24676.21" departPos="random">
        <ride from="-152387429" to="25412019" arrivalPos="14.90" lines="taxi"/>
        <walk edges="25412019 152337234#0 152337234#1" arrivalPos="22.03"/>
    </person>
    <person id="s360" depart="24676.21" departPos="random">
        <ride from="-152387429" to="25412019" arrivalPos="14.90" lines="taxi"/>
        <walk edges="25412019 152337234#0 152337234#1" arrivalPos="11.74"/>
    </person>
    <person id="s62" depart="24684.46" departPos="random">
        <ride from="-1068735315#1" to="519913265#1" arrivalPos="10.00" lines="taxi"/>
        <walk edges="519913265#1" arrivalPos="11.66"/>
    </person>
    <person id="s197" depart="24698.74" departPos="random">
        <ride from="187198083#2" to="519913261#1" arrivalPos="15.00" lines="taxi"/>
        <walk edges="519913261#1" arrivalPos="20.15"/>
    </person>
    <person id="s269" depart="24735.69" departPos="random">
        <ride from="191253662#7" to="519913261#1" arrivalPos="15.00" lines="taxi"/>
        <walk edges="519913261#1" arrivalPos="12.92"/>
    </person>
    <person id="s64" depart="24736.43" departPos="random">
        <ride from="-308250435#1" to="519913263#1" arrivalPos="15.00" lines="taxi"/>
        <walk edges="519913263#1" arrivalPos="24.76"/>
    </person>
    <person id="s108" depart="24799.14" departPos="random">
        <ride from="1085583302#1" to="519913257#1" arrivalPos="15.00" lines="taxi"/>
        <walk edges="519913257#1" arrivalPos="16.42"/>
    </person>
    <person id="s84" depart="24803.44" departPos="random">
        <ride from="-338400631#0" to="-502426852#0" arrivalPos="73.49" lines="taxi"/>
        <walk edges="-502426852#0 -502426852#1 502426852#2 -502426852#3 -518702669 -208216585#0" arrivalPos="217.01"/>
    </person>
    <person id="s131" depart="24856.94" departPos="random">
        <ride from="-256959701#0" to="519913261#1" arrivalPos="15.00" lines="taxi"/>
        <walk edges="519913261#1" arrivalPos="8.40"/>
    </person>
    <person id="s418" depart="24869.92" departPos="random">
        <ride from="188731354#0" to="-819942944#4" arrivalPos="39.13" lines="taxi"/>
        <walk edges="-819942944#4 -819945212 -1113054109 152331922#0 -152385711 819945213" arrivalPos="8.67"/>
    </person>
    <person id="p205" depart="24899.10" departPos="random">
        <ride from="1068735330#2" to="18887954#0" arrivalPos="6.62" lines="taxi"/>
        <walk edges="18887954#0 -31061888#1 31061889#0 31061889#2 -31061889#3 -31061889#4 -116077721#3 116077721#2" arrivalPos="21.80"/>
    </person>
    <person id="s205" depart="24899.10" departPos="random">
        <ride from="1068735330#2" to="18887954#0" arrivalPos="6.62" lines="taxi"/>
        <walk edges="18887954#0 -31061888#1 31061889#0 31061889#2 -31061889#3 -31061889#4 -116077721#3 116077721#2" arrivalPos="44.47"/>
    </person>
    <person id="s424" depart="24899.89" departPos="random">
        <ride from="25303487#0" to="-819942944#4" arrivalPos="39.13" lines="taxi"/>
        <walk edges="-819942944#4 -819945212 -1113054109 152331922#0 -152385711 819945213" arrivalPos="2.14"/>
    </person>
    <person id="s449" depart="24951.54" departPos="random">
        <ride from="154770319#1" to="-819942944#4" arrivalPos="39.13" lines="taxi"/>
        <walk edges="-819942944#4 -819945212 -1113054109 152331922#0 -152385711 819945213" arrivalPos="9.83"/>
    </person>
    <person id="s302" depart="24963.96" departPos="random">
        <ride from="543256263#2" to="519913265#1" arrivalPos="10.00" lines="taxi"/>
        <walk edges="519913265#1" arrivalPos="18.15"/>
    </person>
    <person id="s223" depart="24965.42" departPos="random">