<?xml version="1.0" encoding="UTF-8"?>

<!-- generated by Eclipse SUMO duarouter Version 1.12.0
<configuration xmlns:xsi="http://www.w3.org/2001/XMLSchema-instance" xsi:noNamespaceSchemaLocation="http://sumo.dlr.de/xsd/duarouterConfiguration.xsd">

    <input>
        <net-file value="D:\Dokumente\sumo\maloja\simple.net.xml"/>
        <additional-files value="D:\Dokumente\sumo\maloja\01_schools\taz_maloja_school_areas_filtered.add.xml,D:\Dokumente\sumo\maloja\01_schools\taz_maloja_schools.add.xml,D:\Dokumente\sumo\maloja\03_bus\virtualstop.add.xml,D:\Dokumente\sumo\maloja\03_bus\02_August\vtypes.xml,D:\Dokumente\sumo\maloja\03_bus\02_August\gtfs_pt_stops.add.xml"/>
        <route-files value="D:\Dokumente\sumo\maloja\01_schools\persontrips_maloja_school_modded_with_parents.xml,D:\Dokumente\sumo\maloja\03_bus\02_August\gtfs_pt_vehicles.add.xml"/>
    </input>

    <output>
        <output-file value="D:\Dokumente\sumo\maloja\01_schools\persontrips_maloja_school_resolved_summer_bus_modded_with_parents.rou.xml"/>
        <alternatives-output value="D:\Dokumente\sumo\maloja\01_schools\persontrips_maloja_school_resolved_summer_bus_modded_with_parents.rou.alt.xml"/>
    </output>

    <processing>
        <persontrip.transfer.taxi-walk value="ptStops"/>
        <persontrip.transfer.walk-taxi value="ptStops"/>
    </processing>

    <report>
        <verbose value="true"/>
    </report>

</configuration>
-->

<routes xmlns:xsi="http://www.w3.org/2001/XMLSchema-instance" xsi:noNamespaceSchemaLocation="http://sumo.dlr.de/xsd/routes_file.xsd">
    <person id="p79" depart="23447.01" departPos="random">
        <walk edges="741319024#2 -741319024#2 349618630#0 -349618630#1 -1162538599#6 -1162538599#5 -1162538599#4 1162538599#3 -1162538599#2 -1162538599#1 365973802 1083351543#1 1083351543#0 186947409 -186140135#0 186140135#1 186140135#2 -186140135#3 -186140135#4 -614457355 375822918#0 1187206776 429497063#0 -429497063#1 -1426892773 -429497064 -550605628 -550605631 -120829160 120839519#1 1083356001 120829159" busStop="14.TA.96-290-0-j24-1.25.H.11"/> <!-- Promontogno, Posta -->
        <ride busStop="48.TA.96-290-0-j24-1.17.R.9" lines="61.TA.96-290-0-j24-1.30.R" intended="61.TA.96-290-0-j24-1.30.R.0" depart="27230.00"/> <!-- Vicosoprano, Plazza -->
        <walk edges="890169725#1 -890169723#0 -890169723#1 890169723#2 -1036672006#0 -1036672006#1 391653985#1 1036672007 391653993#2 -338400631#1 338400631#0 -338400630#3 -338400630#2" arrivalPos="28.86"/>
    </person>
    <person id="s79" depart="23447.01" departPos="random">
        <walk edges="741319024#2 -741319024#2 349618630#0 -349618630#1 -1162538599#6 -1162538599#5 -1162538599#4 1162538599#3 -1162538599#2 -1162538599#1 365973802 1083351543#1 1083351543#0 186947409 -186140135#0 186140135#1 186140135#2 -186140135#3 -186140135#4 -614457355 375822918#0 1187206776 429497063#0 -429497063#1 -1426892773 -429497064 -550605628 -550605631 -120829160 120839519#1 1083356001 120829159" busStop="14.TA.96-290-0-j24-1.25.H.11"/> <!-- Promontogno, Posta -->
        <ride busStop="48.TA.96-290-0-j24-1.17.R.9" lines="61.TA.96-290-0-j24-1.30.R" intended="61.TA.96-290-0-j24-1.30.R.0" depart="27230.00"/> <!-- Vicosoprano, Plazza -->
        <walk edges="890169725#1 -890169723#0 -890169723#1 890169723#2 -1036672006#0 -1036672006#1 391653985#1 1036672007 391653993#2 -338400631#1 338400631#0 -338400630#3 -338400630#2" arrivalPos="23.08"/>
    </person>
    <person id="s48" depart="23521.78" departPos="random">
        <walk edges="695907287#1 -695907287#1 -320549344 1441870936#1 1441870936#2 1441870936#3 1441870936#4 1441870936#5 1441870936#6 -1441870936#7 -69218976#0 -170952338#5 -320549341#0 320549341#1 -320549341#2 -501346489#0 -501346489#1 -501346489#2" busStop="16.TA.96-290-0-j24-1.26.H.1"/> <!-- Maloja, Cad'Maté -->
        <ride busStop="14.TA.96-290-0-j24-1.25.H.10" lines="19.TA.96-290-0-j24-1.32.H" intended="19.TA.96-290-0-j24-1.32.H.0" depart="26210.00"/> <!-- Stampa, Val d'Arca -->
        <walk edges="-502426852#0 -502426852#1 502426852#2 -502426852#3 -518702669 -208216585#0" arrivalPos="10.16"/>
    </person>
    <person id="p74" depart="23569.75" departPos="random">
        <walk edges="-222975197#1 222975197#2 -222975197#3 186947410#2 186947410#3 1083351543#0 186947409 -186140135#0 186140135#1 186140135#2 -186140135#3 -186140135#4 -614457355 375822918#0 1187206776 429497063#0 -429497063#1 -1426892773 -429497064 -550605628 -550605631 -120829160 120839519#1 1083356001 120829159" busStop="14.TA.96-290-0-j24-1.25.H.11"/> <!-- Promontogno, Posta -->
        <ride busStop="48.TA.96-290-0-j24-1.17.R.9" lines="61.TA.96-290-0-j24-1.30.R" intended="61.TA.96-290-0-j24-1.30.R.0" depart="27230.00"/> <!-- Vicosoprano, Plazza -->
        <walk edges="890169725#1 -890169723#0 -890169723#1 890169723#2 -1036672006#0 -1036672006#1 391653985#1 1036672007 391653993#2 -338400631#1 338400631#0 -338400630#3 -338400630#2" arrivalPos="15.92"/>
    </person>
    <person id="s74" depart="23569.75" departPos="random">
        <walk edges="-222975197#1 222975197#2 -222975197#3 186947410#2 186947410#3 1083351543#0 186947409 -186140135#0 186140135#1 186140135#2 -186140135#3 -186140135#4 -614457355 375822918#0 1187206776 429497063#0 -429497063#1 -1426892773 -429497064 -550605628 -550605631 -120829160 120839519#1 1083356001 120829159" busStop="14.TA.96-290-0-j24-1.25.H.11"/> <!-- Promontogno, Posta -->
        <ride busStop="48.TA.96-290-0-j24-1.17.R.9" lines="61.TA.96-290-0-j24-1.30.R" intended="61.TA.96-290-0-j24-1.30.R.0" depart="27230.00"/> <!-- Vicosoprano, Plazza -->
        <walk edges="890169725#1 -890169723#0 -890169723#1 890169723#2 -1036672006#0 -1036672006#1 391653985#1 1036672007 391653993#2 -338400631#1 338400631#0 -338400630#3 -338400630#2" arrivalPos="19.11"/>
    </person>
    <person id="p410" depart="23600.43" departPos="random">
        <walk edges="72562019#3 72562019#2 -72562019#1 72562019#0 -30952515#0" busStop="2463.TA.92-1-N-j24-1.93.R.1"/> <!-- Champfèr, Schulhaus -->
        <ride busStop="1.TA.92-4-Q-j24-1.1.R.12" lines="2.TA.92-4-Q-j24-1.2.R" intended="2.TA.92-4-Q-j24-1.2.R.0" depart="24230.00"/> <!-- St. Moritz Bad, Reithalle -->
        <walk edges="1113136564#0 -1113136564#1 -120840705#1 120840705#2 -120840705#3 -120840705#4 -1113054108#1 1113054108#0 152331922#1 -152385711 819945213" arrivalPos="0.92"/>
    </person>
    <person id="s410" depart="23600.43" departPos="random">
        <walk edges="72562019#3 72562019#2 -72562019#1 72562019#0 -30952515#0" busStop="2463.TA.92-1-N-j24-1.93.R.1"/> <!-- Champfèr, Schulhaus -->
        <ride busStop="1.TA.92-4-Q-j24-1.1.R.12" lines="2.TA.92-4-Q-j24-1.2.R" intended="2.TA.92-4-Q-j24-1.2.R.0" depart="24230.00"/> <!-- St. Moritz Bad, Reithalle -->
        <walk edges="1113136564#0 -1113136564#1 -120840705#1 120840705#2 -120840705#3 -120840705#4 -1113054108#1 1113054108#0 152331922#1 -152385711 819945213" arrivalPos="15.67"/>
    </person>
    <person id="s47" depart="23601.67" departPos="random">
        <walk edges="-315159485#0 315159485#0 -977972909 -501346489#2" busStop="16.TA.96-290-0-j24-1.26.H.1"/> <!-- Maloja, Cad'Maté -->
        <ride busStop="14.TA.96-290-0-j24-1.25.H.10" lines="19.TA.96-290-0-j24-1.32.H" intended="19.TA.96-290-0-j24-1.32.H.0" depart="26210.00"/> <!-- Stampa, Val d'Arca -->
        <walk edges="-502426852#0 -502426852#1 502426852#2 -502426852#3 -518702669 -208216585#0" arrivalPos="55.29"/>
    </person>
    <person id="s51" depart="23607.72" departPos="random">
        <walk edges="170952338#3 170952338#2 170952338#1 -170952338#0 -308081216 502426860#3 502426860#1 -502426860#0 -502426859#5 502426859#4 502426859#2 -502426859#1 502426859#0 1069366698 502426858 -903495400 502426857#2 -502426857#1 502426857#0 -366854450#1 430248865#14 430248865#12 -430248865#11 -430248865#10" busStop="16.TA.96-290-0-j24-1.26.H.4"/> <!-- Casaccia, Löbbia -->
        <ride busStop="14.TA.96-290-0-j24-1.25.H.10" lines="19.TA.96-290-0-j24-1.32.H" intended="19.TA.96-290-0-j24-1.32.H.0" depart="26930.00"/> <!-- Stampa, Val d'Arca -->
        <walk edges="-502426852#0 -502426852#1 502426852#2 -502426852#3 -518702669 -208216585#0" arrivalPos="121.80"/>
    </person>
    <person id="p175" depart="23615.86" departPos="random">
        <walk edges="-72561717#0 72561717#0 -25418326#1 25418326#0 14014133#1 -66846274 -96461182#2 96461182#1 1472605488#2" busStop="1193.TA.92-10-J-j24-1.22.R.6"/> <!-- Sils/Segl Maria, Seglias -->
        <ride busStop="1674.TA.92-1-N-j24-1.90.R.6" lines="1373.TA.92-2-L-j24-1.24.R" intended="1373.TA.92-2-L-j24-1.24.R.0" depart="25490.00"/> <!-- St. Moritz, Schulhausplatz -->
        <walk edges="-819942944#4 -819945212 -1113054109 152331922#0 -152385711 819945213" arrivalPos="15.71"/>
    </person>
    <person id="s175" depart="23615.86" departPos="random">
        <walk edges="-72561717#0 72561717#0 -25418326#1 25418326#0 14014133#1 -66846274 -96461182#2 96461182#1 1472605488#2" busStop="1193.TA.92-10-J-j24-1.22.R.6"/> <!-- Sils/Segl Maria, Seglias -->
        <ride busStop="1674.TA.92-1-N-j24-1.90.R.6" lines="1373.TA.92-2-L-j24-1.24.R" intended="1373.TA.92-2-L-j24-1.24.R.0" depart="25490.00"/> <!-- St. Moritz, Schulhausplatz -->
        <walk edges="-819942944#4 -819945212 -1113054109 152331922#0 -152385711 819945213" arrivalPos="0.13"/>
    </person>
    <person id="s332" depart="23620.65" departPos="random">
        <walk edges="915198685#1 -14014143#1 14014143#0 -1113136564#1 -1113136564#0 89726026#3 89726026#2 -89726026#1 -89726026#0 51814854 -30957915" busStop="1674.TA.92-1-N-j24-1.90.R.3"/> <!-- St. Moritz Bad, Kath. Kirche -->
        <ride busStop="1323.TA.92-1-N-j24-1.88.H.14" lines="1674.TA.92-1-N-j24-1.90.R" intended="1954.TA.92-1-N-j24-1.90.R.0" depart="24170.00"/> <!-- St. Moritz, Bahnhof -->
        <walk edges="519913263#1 519913263#0 897592613 519913261#0 519913261#1" arrivalPos="19.08"/>
    </person>
    <person id="p218" depart="23629.61" departPos="random">
        <walk edges="116576984#0 -116507538#4 116507538#3 116507538#2 -116507538#0 116715858 147218475#2 -147218475#0 1086005527#0 1086005528 14014136#0 1136237770 1086005533" busStop="2545.TA.92-1-N-j24-1.95.R.3"/> <!-- Silvaplana, Rundella Curtins -->
        <ride busStop="1.TA.92-4-Q-j24-1.1.R.12" lines="2.TA.92-4-Q-j24-1.2.R" intended="2.TA.92-4-Q-j24-1.2.R.0" depart="23990.00"/> <!-- St. Moritz Bad, Reithalle -->
        <walk edges="1113136564#0 -1113136564#1 -120840705#1 120840705#2 -120840705#3 -120840705#4 -1113054108#1 1113054108#0 152331922#1 -152385711 819945213" arrivalPos="9.83"/>
    </person>
    <person id="s218" depart="23629.61" departPos="random">
        <walk edges="116576984#0 -116507538#4 116507538#3 116507538#2 -116507538#0 116715858 147218475#2 -147218475#0 1086005527#0 1086005528 14014136#0 1136237770 1086005533" busStop="2545.TA.92-1-N-j24-1.95.R.3"/> <!-- Silvaplana, Rundella Curtins -->
        <ride busStop="1.TA.92-4-Q-j24-1.1.R.12" lines="2.TA.92-4-Q-j24-1.2.R" intended="2.TA.92-4-Q-j24-1.2.R.0" depart="23990.00"/> <!-- St. Moritz Bad, Reithalle -->
        <walk edges="1113136564#0 -1113136564#1 -120840705#1 120840705#2 -120840705#3 -120840705#4 -1113054108#1 1113054108#0 152331922#1 -152385711 819945213" arrivalPos="9.53"/>
    </person>
    <person id="s194" depart="23641.82" departPos="random">
        <walk edges="30957922 30957921#0 -30957918#0 25418590#0 918403989#1 918403989#0 -30957916#4 30957916#3 -30957916#2 30957916#1 -96461188 -187633173#1 -187633173#0 187633169#4 187633169#3 -187633169#2 -187633169#1 -187633169#0 -1050853680 -25418588#1 19738790#1 19738790#0 -1050853679 -19738795 1086005531 1086005530 1136237769 1086005533" busStop="2545.TA.92-1-N-j24-1.95.R.3"/> <!-- Silvaplana, Rundella Curtins -->
        <ride busStop="1323.TA.92-1-N-j24-1.88.H.14" lines="2746.TA.92-1-N-j24-1.100.R" intended="2746.TA.92-1-N-j24-1.100.R.0" depart="25370.00"/> <!-- St. Moritz, Bahnhof -->
        <walk edges="519913263#1" arrivalPos="16.05"/>
    </person>
    <person id="p375" depart="23645.88" departPos="random">
        <walk edges="30957914#0 382202904#0 -382202904#1 -382202904#2 382202904#3 -382202904#4 1441721435 -1132581922 -30957915" busStop="1674.TA.92-1-N-j24-1.90.R.3"/> <!-- St. Moritz Bad, Kath. Kirche -->
        <ride busStop="1674.TA.92-1-N-j24-1.90.R.6" lines="1674.TA.92-1-N-j24-1.90.R" intended="1954.TA.92-1-N-j24-1.90.R.0" depart="24170.00"/> <!-- St. Moritz, Schulhausplatz -->
        <walk edges="-819942944#4 819945211 -1467922383 819945210#0 41595601#0 -41595601#2 41595601#3 41595601#4 -41595601#5 152337236#1 25412019 152337234#0 152337234#1" arrivalPos="6.30"/>
    </person>
    <person id="s375" depart="23645.88" departPos="random">
        <walk edges="30957914#0 382202904#0 -382202904#1 -382202904#2 382202904#3 -382202904#4 1441721435 -1132581922 -30957915" busStop="1674.TA.92-1-N-j24-1.90.R.3"/> <!-- St. Moritz Bad, Kath. Kirche -->
        <ride busStop="1674.TA.92-1-N-j24-1.90.R.6" lines="1674.TA.92-1-N-j24-1.90.R" intended="1954.TA.92-1-N-j24-1.90.R.0" depart="24170.00"/> <!-- St. Moritz, Schulhausplatz -->
        <walk edges="-819942944#4 819945211 -1467922383 819945210#0 41595601#0 -41595601#2 41595601#3 41595601#4 -41595601#5 152337236#1 25412019 152337234#0 152337234#1" arrivalPos="1.44"/>
    </person>
    <person id="p441" depart="23665.77" departPos="random">
        <walk edges="189023059#1 189023059#0 232471144#1 -232471144#0 -1127470773 14014151 888359128#3 268776830#0 -268776830#1 1189801663 916015460#0 916015460#1 89724876#3 72562096#0 916468197 519913257#0 519913257#1" busStop="1.TA.92-4-Q-j24-1.1.R.13"/> <!-- St. Moritz, Bahnhof -->
        <ride busStop="1003.TA.92-9-H-j24-1.10.H.3" lines="19.TA.96-290-0-j24-1.32.H" intended="19.TA.96-290-0-j24-1.32.H.0" depart="24410.00"/> <!-- St. Moritz Bad, Reithalle -->
        <walk edges="-89726026#3 -1113136564#0 -1113136564#1 -120840705#1 120840705#2 -120840705#3 -120840705#4 -1113054108#1 1113054108#0 152331922#1 -152385711 819945213" arrivalPos="18.46"/>
    </person>
    <person id="s441" depart="23665.77" departPos="random">
        <walk edges="189023059#1 189023059#0 232471144#1 -232471144#0 -1127470773 14014151 888359128#3 268776830#0 -268776830#1 1189801663 916015460#0 916015460#1 89724876#3 72562096#0 916468197 519913257#0 519913257#1" busStop="1.TA.92-4-Q-j24-1.1.R.13"/> <!-- St. Moritz, Bahnhof -->
        <ride busStop="1003.TA.92-9-H-j24-1.10.H.3" lines="19.TA.96-290-0-j24-1.32.H" intended="19.TA.96-290-0-j24-1.32.H.0" depart="24410.00"/> <!-- St. Moritz Bad, Reithalle -->
        <walk edges="-89726026#3 -1113136564#0 -1113136564#1 -120840705#1 120840705#2 -120840705#3 -120840705#4 -1113054108#1 1113054108#0 152331922#1 -152385711 819945213" arrivalPos="6.79"/>
    </person>
    <person id="s124" depart="23721.07" departPos="random">
        <walk edges="56085325#2 -56085325#1 56085325#0 -52959697#3 -52959697#2 52959697#1 52959697#0 1201541125 -1472605488#0 1472605488#1 1472605488#2" busStop="1193.TA.92-10-J-j24-1.22.R.6"/> <!-- Sils/Segl Maria, Seglias -->
        <ride busStop="1674.TA.92-1-N-j24-1.90.R.6" lines="1373.TA.92-2-L-j24-1.24.R" intended="1373.TA.92-2-L-j24-1.24.R.0" depart="25490.00"/> <!-- St. Moritz, Schulhausplatz -->
        <ride busStop="1323.TA.92-1-N-j24-1.88.H.14" lines="2463.TA.92-1-N-j24-1.93.R" intended="2463.TA.92-1-N-j24-1.93.R.0" depart="26930.00"/> <!-- St. Moritz, Bahnhof -->
        <walk edges="519913263#1 519913263#0 897592613 519913261#0 519913261#1" arrivalPos="19.38"/>
    </person>
    <person id="s300" depart="23740.73" departPos="random">
        <walk edges="-152517715#0 -152517715#1 152517715#3" busStop="1674.TA.92-1-N-j24-1.90.R.5"/> <!-- St. Moritz Bad, Via Aruons -->
        <ride busStop="1323.TA.92-1-N-j24-1.88.H.14" lines="1674.TA.92-1-N-j24-1.90.R" intended="1954.TA.92-1-N-j24-1.90.R.0" depart="24290.00"/> <!-- St. Moritz, Bahnhof -->
        <walk edges="519913263#1" arrivalPos="1.31"/>
    </person>
    <person id="s179" depart="23742.87" departPos="random">
        <walk edges="-185833040#0 185833040#0 -18887954#2 -18887954#1 18887954#0 116715858 147218475#2 -147218475#0 1086005527#0 1086005528 14014136#0 1136237770 1086005533" busStop="2545.TA.92-1-N-j24-1.95.R.3"/> <!-- Silvaplana, Rundella Curtins -->
        <ride busStop="1193.TA.92-10-J-j24-1.22.R.22" lines="4481.TA.92-6-I-j24-1.27.R" intended="4481.TA.92-6-I-j24-1.27.R.0" depart="24290.00"/> <!-- St. Moritz, Schulhausplatz -->
        <walk edges="894576901#0 152337236#1 -41595601#5 41595601#4 41595601#3 -41595601#2 41595601#0 819945210#0 -1467922383 819945211 -819942944#4 819942944#3 819942944#2 -152520535 1068735337 819942945#2 -819942945#0 1068735342#1 1068735342#0 -47578286 120840712#0 903531446 519913265#0 519913265#1" arrivalPos="14.07"/>
    </person>
    <person id="p18" depart="23745.66" departPos="random">
        <walk edges="170952338#3" busStop="36.TA.96-290-0-j24-1.27.R.11"/> <!-- Casaccia, Cavril -->
        <ride busStop="36.TA.96-290-0-j24-1.27.R.12" lines="52.TA.96-290-0-j24-1.29.R" intended="52.TA.96-290-0-j24-1.29.R.0" depart="25310.00"/> <!-- Maloja, Cad'Maté -->
        <walk edges="977972909 -315159485#0 -315159485#1 315159485#2 315159485#3 315159485#4 -315159485#5 -315159485#6 1068729371#0 -1068729371#1" arrivalPos="16.66"/>
    </person>
    <person id="s18" depart="23745.66" departPos="random">
        <walk edges="170952338#3" busStop="36.TA.96-290-0-j24-1.27.R.11"/> <!-- Casaccia, Cavril -->
        <ride busStop="36.TA.96-290-0-j24-1.27.R.12" lines="52.TA.96-290-0-j24-1.29.R" intended="52.TA.96-290-0-j24-1.29.R.0" depart="25310.00"/> <!-- Maloja, Cad'Maté -->
        <walk edges="977972909 -315159485#0 -315159485#1 315159485#2 315159485#3 315159485#4 -315159485#5 -315159485#6 1068729371#0 -1068729371#1" arrivalPos="34.36"/>
    </person>
    <person id="p389" depart="23755.36" departPos="random">
        <walk edges="-189023053#1 189023053#0 -189023055#1 189023055#0 -1318101192 -1318101191#1 232471144#2 232471144#1 -232471144#0 -1127470773 14014151 888359128#3 268776830#0 -268776830#1 1189801663 916015460#0 916015460#1 89724876#3 72562096#0 916468197 -904728442 519913261#0 519913261#1" busStop="193.TA.92-1-N-j24-1.77.H.0"/> <!-- St. Moritz, Bahnhof -->
        <ride busStop="1323.TA.92-1-N-j24-1.88.H.15" lines="543.TA.92-1-N-j24-1.79.H" intended="543.TA.92-1-N-j24-1.79.H.0" depart="24890.00"/> <!-- St. Moritz, Klinik Gut -->
        <walk edges="819942944#3 -819942944#4 -819945212 -1113054109 152331922#0 -152385711 819945213" arrivalPos="19.79"/>
    </person>
    <person id="s389" depart="23755.36" departPos="random">
        <walk edges="-189023053#1 189023053#0 -189023055#1 189023055#0 -1318101192 -1318101191#1 232471144#2 232471144#1 -232471144#0 -1127470773 14014151 888359128#3 268776830#0 -268776830#1 1189801663 916015460#0 916015460#1 89724876#3 72562096#0 916468197 -904728442 519913261#0 519913261#1" busStop="193.TA.92-1-N-j24-1.77.H.0"/> <!-- St. Moritz, Bahnhof -->
        <ride busStop="1323.TA.92-1-N-j24-1.88.H.15" lines="543.TA.92-1-N-j24-1.79.H" intended="543.TA.92-1-N-j24-1.79.H.0" depart="24890.00"/> <!-- St. Moritz, Klinik Gut -->
        <walk edges="819942944#3 -819942944#4 -819945212 -1113054109 152331922#0 -152385711 819945213" arrivalPos="17.38"/>
    </person>
    <person id="s92" depart="23770.79" departPos="random">
        <walk edges="1324238128 -1324238128 890169725#3 -890169725#2 890169725#1 -890169725#0 -890169724#2 890169724#1 890169724#0 1083299691#1 120840215 -502426855#2 -502426855#1" busStop="14.TA.96-290-0-j24-1.25.H.9"/> <!-- Vicosoprano, Helvetia -->
        <ride busStop="14.TA.96-290-0-j24-1.25.H.10" lines="19.TA.96-290-0-j24-1.32.H" intended="19.TA.96-290-0-j24-1.32.H.0" depart="27470.00"/> <!-- Stampa, Val d'Arca -->
        <walk edges="-502426852#0 -502426852#1 502426852#2 -502426852#3 -518702669 -208216585#0" arrivalPos="198.28"/>
    </person>
    <person id="p365" depart="23791.80" departPos="random">
        <walk edges="191253662#7 -191253662#7 -1068735332#3 30957906 -1493002173 -30952515#1 -30952515#0" busStop="2463.TA.92-1-N-j24-1.93.R.1"/> <!-- Champfèr, Schulhaus -->
        <ride busStop="1.TA.92-4-Q-j24-1.1.R.13" lines="2.TA.92-4-Q-j24-1.2.R" intended="2.TA.92-4-Q-j24-1.2.R.0" depart="24230.00"/> <!-- St. Moritz, Bahnhof -->
        <walk edges="519913257#1 519913257#0 -904728442 519913261#0 519913261#1" busStop="193.TA.92-1-N-j24-1.77.H.0"/> <!-- St. Moritz, Bahnhof -->
        <ride busStop="1323.TA.92-1-N-j24-1.88.H.15" lines="543.TA.92-1-N-j24-1.79.H" intended="543.TA.92-1-N-j24-1.79.H.0" depart="24890.00"/> <!-- St. Moritz, Klinik Gut -->
        <walk edges="819942944#3 -819942944#4 819945211 -1467922383 819945210#0 41595601#0 -41595601#2 41595601#3 41595601#4 -41595601#5 152337236#1 25412019 152337234#0 152337234#1" arrivalPos="9.45"/>
    </person>
    <person id="s365" depart="23791.80" departPos="random">
        <walk edges="191253662#7 -191253662#7 -1068735332#3 30957906 -1493002173 -30952515#1 -30952515#0" busStop="2463.TA.92-1-N-j24-1.93.R.1"/> <!-- Champfèr, Schulhaus -->
        <ride busStop="1.TA.92-4-Q-j24-1.1.R.13" lines="2.TA.92-4-Q-j24-1.2.R" intended="2.TA.92-4-Q-j24-1.2.R.0" depart="24230.00"/> <!-- St. Moritz, Bahnhof -->
        <walk edges="519913257#1 519913257#0 -904728442 519913261#0 519913261#1" busStop="193.TA.92-1-N-j24-1.77.H.0"/> <!-- St. Moritz, Bahnhof -->
        <ride busStop="1323.TA.92-1-N-j24-1.88.H.15" lines="543.TA.92-1-N-j24-1.79.H" intended="543.TA.92-1-N-j24-1.79.H.0" depart="24890.00"/> <!-- St. Moritz, Klinik Gut -->
        <walk edges="819942944#3 -819942944#4 819945211 -1467922383 819945210#0 41595601#0 -41595601#2 41595601#3 41595601#4 -41595601#5 152337236#1 25412019 152337234#0 152337234#1" arrivalPos="12.97"/>
    </person>
    <person id="s328" depart="23793.73" departPos="random">
        <walk edges="543256263#1 915198667 915198663 769993301#5 19724261 170952324#0 170952324#1 170952324#2 -170952324#3 -170952324#5 170952322#0 170952322#1" busStop="2.TA.92-4-Q-j24-1.2.R.13"/> <!-- St. Moritz Bad, Hallenbad -->
        <ride busStop="1.TA.92-4-Q-j24-1.1.R.13" lines="2.TA.92-4-Q-j24-1.2.R" intended="2.TA.92-4-Q-j24-1.2.R.0" depart="24470.00"/> <!-- St. Moritz, Bahnhof -->
        <walk edges="519913257#1" arrivalPos="6.77"/>
    </person>
    <person id="p77" depart="23797.95" departPos="random">
        <walk edges="-391661587#1 128157725#2 1076816815 -128157726#0 -128157726#1 23844221 -23844222 -186140135#0 186140135#1 186140135#2 -186140135#3 -186140135#4 -614457355 375822918#0 1187206776 429497063#0 -429497063#1 -1426892773 -429497064 -550605628 -550605631 -120829160 120839519#1 1083356001 120829159" busStop="14.TA.96-290-0-j24-1.25.H.11"/> <!-- Promontogno, Posta -->
        <ride busStop="48.TA.96-290-0-j24-1.17.R.9" lines="61.TA.96-290-0-j24-1.30.R" intended="61.TA.96-290-0-j24-1.30.R.0" depart="27230.00"/> <!-- Vicosoprano, Plazza -->
        <walk edges="890169725#1 -890169723#0 -890169723#1 890169723#2 -1036672006#0 -1036672006#1 391653985#1 1036672007 391653993#2 -338400631#1 338400631#0 -338400630#3 -338400630#2" arrivalPos="1.05"/>
    </person>
    <person id="s77" depart="23797.95" departPos="random">
        <walk edges="-391661587#1 128157725#2 1076816815 -128157726#0 -128157726#1 23844221 -23844222 -186140135#0 186140135#1 186140135#2 -186140135#3 -186140135#4 -614457355 375822918#0 1187206776 429497063#0 -429497063#1 -1426892773 -429497064 -550605628 -550605631 -120829160 120839519#1 1083356001 120829159" busStop="14.TA.96-290-0-j24-1.25.H.11"/> <!-- Promontogno, Posta -->
        <ride busStop="48.TA.96-290-0-j24-1.17.R.9" lines="61.TA.96-290-0-j24-1.30.R" intended="61.TA.96-290-0-j24-1.30.R.0" depart="27230.00"/> <!-- Vicosoprano, Plazza -->
        <walk edges="890169725#1 -890169723#0 -890169723#1 890169723#2 -1036672006#0 -1036672006#1 391653985#1 1036672007 391653993#2 -338400631#1 338400631#0 -338400630#3 -338400630#2" arrivalPos="9.77"/>
    </person>
    <person id="s338" depart="23811.73" departPos="random">
        <walk edges="-391952926#3 -39830434#2 39830434#1 39830434#0 268146940#2 -578147406 1005048062#1 -1005048061#0 1005048061#1 -1005048061#2 -152522410#1 819942940#1 819942940#0 -1005052428#2 1005052428#1 -41595601#5 41595601#4 41595601#3 -41595601#2 41595601#0 819945210#0 -1467922383 819945211 -819942944#4" busStop="1674.TA.92-1-N-j24-1.90.R.6"/> <!-- St. Moritz, Schulhausplatz -->
        <ride busStop="1323.TA.92-1-N-j24-1.88.H.14" lines="1674.TA.92-1-N-j24-1.90.R" intended="1954.TA.92-1-N-j24-1.90.R.0" depart="24530.00"/> <!-- St. Moritz, Bahnhof -->
        <walk edges="519913263#1 897620166 519913261#1" arrivalPos="21.67"/>
    </person>
    <person id="p396" depart="23816.57" departPos="random">
        <walk edges="-1116543561#0 1116543561#0 152385705#2 152385705#1 -152385705#0 25303487#3" busStop="1674.TA.92-1-N-j24-1.90.R.4"/> <!-- St. Moritz Bad, Via Salet -->
        <ride busStop="1674.TA.92-1-N-j24-1.90.R.6" lines="1674.TA.92-1-N-j24-1.90.R" intended="1954.TA.92-1-N-j24-1.90.R.0" depart="24230.00"/> <!-- St. Moritz, Schulhausplatz -->
        <walk edges="-819942944#4 -819945212 -1113054109 152331922#0 -152385711 819945213" arrivalPos="3.35"/>
    </person>
    <person id="s396" depart="23816.57" departPos="random">
        <walk edges="-1116543561#0 1116543561#0 152385705#2 152385705#1 -152385705#0 25303487#3" busStop="1674.TA.92-1-N-j24-1.90.R.4"/> <!-- St. Moritz Bad, Via Salet -->
        <ride busStop="1674.TA.92-1-N-j24-1.90.R.6" lines="1674.TA.92-1-N-j24-1.90.R" intended="1954.TA.92-1-N-j24-1.90.R.0" depart="24230.00"/> <!-- St. Moritz, Schulhausplatz -->
        <walk edges="-819942944#4 -819945212 -1113054109 152331922#0 -152385711 819945213" arrivalPos="20.16"/>
    </person>
    <person id="s61" depart="23817.29" departPos="random">
        <walk edges="-349888201#0 -349888201#1 -175833050 -507648839 349887484 -1085975993 -1068735315#0 1068735315#1 -307930214 175833048 -677287119#0 70702070#0 208826840#1 -208826840#0 -208826839#4 -208826839#3 -208826839#2 208826839#1 208826839#0 208825827#5 -208825827#4 -208825827#3 208825827#2 -208825827#0 -1086010096" busStop="1193.TA.92-10-J-j24-1.22.R.2"/> <!-- Plaun da Lej -->
        <ride busStop="1.TA.92-4-Q-j24-1.1.R.13" lines="61.TA.96-290-0-j24-1.30.R" intended="61.TA.96-290-0-j24-1.30.R.0" depart="29630.00"/> <!-- St. Moritz, Bahnhof -->
        <walk edges="519913257#1" arrivalPos="0.85"/>
    </person>
    <person id="s257" depart="23820.68" departPos="random">
        <walk edges="1188934794 188730896#1 188730896#0 69347933#1 69347933#0 1068735334 25303488#3 25303488#2 25303488#1 -25303488#0 1115020158 -1115020159 1068735336#3 -1068735336#2 -1068735336#1 1068735336#0 25303490 819945209 -1467922383 819945211 -819942944#4" busStop="1674.TA.92-1-N-j24-1.90.R.6"/> <!-- St. Moritz, Schulhausplatz -->
        <ride busStop="1323.TA.92-1-N-j24-1.88.H.14" lines="2746.TA.92-1-N-j24-1.100.R" intended="2746.TA.92-1-N-j24-1.100.R.0" depart="26330.00"/> <!-- St. Moritz, Bahnhof -->
        <walk edges="519913263#1" arrivalPos="19.41"/>
    </person>
    <person id="s106" depart="23824.84" departPos="random">
        <walk edges="171771449#2 -171771449#2 -171771449#3 550605634#1 550605634#0 -1083351547 -522703193 1083351548 -171771384#1 -171771384#0 -171771450#0 31060954#0 -120840218#0 120840218#1 -120840218#2 -120840218#3 -120840218#4 391657349 502426851#0 -391657350#0 391657350#1 -502426852#0 -502426852#1 502426852#2 -502426852#3 -1083276369#0 -1083276369#1 1083276369#2 1083276369#3" busStop="36.TA.96-290-0-j24-1.27.R.4"/> <!-- Stampa, Villaggio -->
        <ride busStop="36.TA.96-290-0-j24-1.27.R.12" lines="61.TA.96-290-0-j24-1.30.R" intended="61.TA.96-290-0-j24-1.30.R.0" depart="27470.00"/> <!-- Maloja, Cad'Maté -->
        <walk edges="977972909 -315159485#0 -315159485#1 315159485#2 315159485#3 315159485#4 -315159485#5 -315159485#6 1068729371#0 -1068729371#1 -1068729371#2 170952349#0 -170952349#1 -977972910" busStop="1193.TA.92-10-J-j24-1.22.R.0"/> <!-- Maloja, Posta -->
        <ride busStop="1.TA.92-4-Q-j24-1.1.R.13" lines="61.TA.96-290-0-j24-1.30.R" intended="61.TA.96-290-0-j24-1.30.R.0" depart="29450.00"/> <!-- St. Moritz, Bahnhof -->
        <walk edges="519913257#1 519913257#0 -904728442 -897592613 519913263#0 519913263#1" arrivalPos="9.39"/>
    </person>
    <person id="s287" depart="23862.72" departPos="random">
        <walk edges="-196520689#2 -196520689#1 196520689#0 -188730896#6 188730896#5 -188730896#4 188730896#3 188730896#2 188730896#1 188730896#0 69347933#1 69347933#0 1068735334 154770319#4 -154770319#3 154770319#2 154770319#1 154770319#0 25303487#4 25303487#3" busStop="1674.TA.92-1-N-j24-1.90.R.4"/> <!-- St. Moritz Bad, Via Salet -->
        <ride busStop="1323.TA.92-1-N-j24-1.88.H.14" lines="2746.TA.92-1-N-j24-1.100.R" intended="2746.TA.92-1-N-j24-1.100.R.0" depart="26030.00"/> <!-- St. Moritz, Bahnhof -->
        <walk edges="519913263#1 519913263#0 897592613 519913261#0 519913261#1" arrivalPos="3.67"/>
    </person>
    <person id="p166" depart="23864.16" departPos="random">
        <walk edges="-56195874#7 150277078#4 -150277078#5 -1472605488#0 1472605488#1 1472605488#2" busStop="1193.TA.92-10-J-j24-1.22.R.6"/> <!-- Sils/Segl Maria, Seglias -->
        <ride busStop="1674.TA.92-1-N-j24-1.90.R.6" lines="1373.TA.92-2-L-j24-1.24.R" intended="1373.TA.92-2-L-j24-1.24.R.0" depart="25490.00"/> <!-- St. Moritz, Schulhausplatz -->
        <walk edges="-819942944#4 -819945212 -1113054109 152331922#0 -152385711 819945213" arrivalPos="2.64"/>
    </person>
    <person id="s166" depart="23864.16" departPos="random">
        <walk edges="-56195874#7 150277078#4 -150277078#5 -1472605488#0 1472605488#1 1472605488#2" busStop="1193.TA.92-10-J-j24-1.22.R.6"/> <!-- Sils/Segl Maria, Seglias -->
        <ride busStop="1674.TA.92-1-N-j24-1.90.R.6" lines="1373.TA.92-2-L-j24-1.24.R" intended="1373.TA.92-2-L-j24-1.24.R.0" depart="25490.00"/> <!-- St. Moritz, Schulhausplatz -->