<?xml version="1.0" encoding="UTF-8"?>

<!-- generated by Eclipse SUMO netedit 1.26.0
-->

<additional xmlns:xsi="http://www.w3.org/2001/XMLSchema-instance" xsi:noNamespaceSchemaLocation="http://sumo.dlr.de/xsd/additional_file.xsd">
    <!-- TAZs -->
    <taz id="taz_bregaglia_kinderkarten_elementary_school_maloja" shape="21130.52,15964.76 21125.89,15934.79 21110.78,15939.66 21118.09,15966.22 21130.52,15963.54 21130.52,15964.76" color="red">
        <tazSource id="-1068729371#1" weight="1.00"/>
        <tazSink id="-1068729371#1" weight="1.00"/>
    </taz>
    <taz id="taz_bregaglia_kinderkarten_elementary_school_vicosoprano" shape="15235.18,10375.40 15235.44,10391.54 15255.17,10390.77 15254.23,10375.99 15235.27,10375.40 15235.18,10375.40" color="red">
        <tazSource id="-338400630#2" weight="1.00"/>
        <tazSink id="-338400630#2" weight="1.00"/>
    </taz>
    <taz id="taz_bregaglia_secondary_school" shape="13175.34,9507.00 13211.35,9532.72 13198.19,9553.15 13166.26,9530.15 13175.65,9507.00 13175.34,9507.00" color="red">
        <tazSource id="-208216585#0" weight="1.00"/>
        <tazSink id="-208216585#0" weight="1.00"/>
    </taz>
    <taz id="taz_higher_education_sink_at_st_moritz_train_station" shape="32522.12,26703.52 32537.34,26716.49 32545.05,26710.00 32530.11,26698.82 32522.03,26703.52 32522.12,26703.52" color="red">
        <tazSource id="519913265#1" weight="1.00"/>
        <tazSink id="519913265#1" weight="1.00"/>
        <tazSource id="519913263#1" weight="1.00"/>
        <tazSink id="519913263#1" weight="1.00"/>
        <tazSource id="519913261#1" weight="1.00"/>
        <tazSink id="519913261#1" weight="1.00"/>
        <tazSource id="519913257#1" weight="1.00"/>
        <tazSink id="519913257#1" weight="1.00"/>
    </taz>
    <taz id="taz_sils_im_engadin_kinderkarten_elementary_school" shape="26162.25,19311.48 26193.75,19343.12 26201.73,19327.16 26187.97,19307.91 26161.70,19310.66 26162.25,19311.48" color="red">
        <tazSource id="56084235" weight="1.00"/>
        <tazSink id="56084235" weight="1.00"/>
    </taz>
    <taz id="taz_silvaplana_kinderkarten_elementary_school" shape="28609.57,22458.06 28624.07,22466.52 28634.95,22452.42 28620.25,22442.96 28609.37,22458.66 28609.57,22458.06" color="red">
        <tazSource id="116077721#2" weight="1.00"/>
        <tazSink id="116077721#2" weight="1.00"/>
    </taz>
    <taz id="taz_st_moritz_kinderkarten_elementary_school_dorf" shape="32013.85,26796.64 32027.20,26801.37 32032.40,26810.29 32023.06,26816.36 32011.16,26806.09 32013.96,26796.64 32013.85,26796.64" color="red">
        <tazSource id="152337234#1" weight="1.00"/>
        <tazSink id="152337234#1" weight="1.00"/>
    </taz>
    <taz id="taz_st_moritz_kinderkarten_elementary_school_secondary_school_grevas" shape="32042.63,26479.58 32050.04,26468.84 32068.65,26478.37 32063.35,26489.87 32042.78,26479.58 32042.63,26479.58" color="red">
        <tazSource id="819945213" weight="1.00"/>
        <tazSink id="819945213" weight="1.00"/>
    </taz>
    <taz id="taz_st_moritz_secondary_school_talentschool" shape="30072.89,24519.42 30063.20,24524.36 30066.92,24531.48 30074.88,24527.31 30072.69,24519.48 30072.89,24519.42" color="red">
        <tazSource id="1068735331" weight="1.00"/>
        <tazSink id="1068735331" weight="1.00"/>
    </taz>
</additional>
