<?xml version="1.0" encoding="UTF-8"?>

<!-- generated by Eclipse SUMO netedit 1.26.0
-->

<data xmlns:xsi="http://www.w3.org/2001/XMLSchema-instance" xsi:noNamespaceSchemaLocation="http://sumo.dlr.de/xsd/datamode_file.xsd">
    <interval id="taz_rel_maloja_morning_commute" begin="23400.00" end="27900.00">
        <tazRelation from="taz_Bregaglia_Maloja" to="taz_bregaglia_kinderkarten_elementary_school_maloja" count="35"/>
        <tazRelation from="taz_Bregaglia_Vicosoprano" to="taz_bregaglia_kinderkarten_elementary_school_vicosoprano" count="10"/>
        <tazRelation from="taz_Sils_Engadin" to="taz_sils_im_engadin_kinderkarten_elementary_school" count="20"/>
        <tazRelation from="taz_Silvaplana" to="taz_silvaplana_kinderkarten_elementary_school" count="10"/>
        <tazRelation from="taz_St_Moritz" to="taz_st_moritz_kinderkarten_elementary_school_dorf" count="30"/>
        <tazRelation from="taz_St_Moritz" to="taz_st_moritz_kinderkarten_elementary_school_secondary_school_grevas" count="80"/>
        <tazRelation from="taz_Bregaglia_Maloja" to="taz_bregaglia_secondary_school" count="18"/>
        <tazRelation from="taz_Bregaglia_Vicosoprano" to="taz_bregaglia_secondary_school" count="25"/>
        <tazRelation from="taz_Sils_Engadin" to="taz_st_moritz_kinderkarten_elementary_school_secondary_school_grevas" count="18"/>
        <tazRelation from="taz_Silvaplana" to="taz_st_moritz_kinderkarten_elementary_school_secondary_school_grevas" count="20"/>
        <tazRelation from="taz_St_Moritz" to="taz_st_moritz_secondary_school_talentschool" count="6"/>        
        <tazRelation from="taz_Bregaglia_Maloja" to="taz_higher_education_sink_at_st_moritz_train_station" count="18"/>
        <tazRelation from="taz_Bregaglia_Vicosoprano" to="taz_higher_education_sink_at_st_moritz_train_station" count="18"/>
        <tazRelation from="taz_Sils_Engadin" to="taz_higher_education_sink_at_st_moritz_train_station" count="16"/>
        <tazRelation from="taz_Silvaplana" to="taz_higher_education_sink_at_st_moritz_train_station" count="20"/>
        <tazRelation from="taz_St_Moritz" to="taz_higher_education_sink_at_st_moritz_train_station" count="120"/>

    </interval>
    <interval id="taz_rel_maloja_evening_commute" begin="43200.00" end="64800.00">
        <tazRelation from="taz_bregaglia_kinderkarten_elementary_school_maloja" to="taz_Bregaglia_Maloja" count="25"/>
        <tazRelation from="taz_bregaglia_kinderkarten_elementary_school_vicosoprano" to="taz_Bregaglia_Vicosoprano" count="10"/>
        <tazRelation from="taz_sils_im_engadin_kinderkarten_elementary_school" to="taz_Sils_Engadin" count="40"/>
        <tazRelation from="taz_silvaplana_kinderkarten_elementary_school" to="taz_Silvaplana" count="10"/>
        <tazRelation from="taz_st_moritz_kinderkarten_elementary_school_dorf" to="taz_St_Moritz" count="26"/>
        <tazRelation from="taz_st_moritz_kinderkarten_elementary_school_secondary_school_grevas" to="taz_St_Moritz" count="60"/>
        <tazRelation from="taz_bregaglia_secondary_school" to="taz_Bregaglia_Maloja" count="30"/>
        <tazRelation from="taz_bregaglia_secondary_school" to="taz_Bregaglia_Vicosoprano" count="30"/>
        <tazRelation from="taz_st_moritz_kinderkarten_elementary_school_secondary_school_grevas" to="taz_Sils_Engadin" count="25"/>
        <tazRelation from="taz_st_moritz_kinderkarten_elementary_school_secondary_school_grevas" to="taz_Silvaplana" count="20"/>
        <tazRelation from="taz_st_moritz_secondary_school_talentschool" to="taz_St_Moritz" count="6"/>
        <tazRelation from="taz_higher_education_sink_at_st_moritz_train_station" to="taz_Bregaglia_Maloja" count="18"/>
        <tazRelation from="taz_higher_education_sink_at_st_moritz_train_station" to="taz_Bregaglia_Vicosoprano" count="18"/>
        <tazRelation from="taz_higher_education_sink_at_st_moritz_train_station" to="taz_Sils_Engadin" count="16"/>
        <tazRelation from="taz_higher_education_sink_at_st_moritz_train_station" to="taz_Silvaplana" count="20"/>
        <tazRelation from="taz_higher_education_sink_at_st_moritz_train_station" to="taz_St_Moritz" count="120"/>
    </interval>
</data>
