<additional xmlns:xsi="http://www.w3.org/2001/XMLSchema-instance" xsi:noNamespaceSchemaLocation="http://sumo.dlr.de/xsd/additional_file.xsd">

    <taz id="taz_Bregaglia_Maloja" shape="18742.30,13776.35 17852.09,13865.37 14859.63,14509.05 14033.78,16869.22 16722.72,16217.08 18655.92,17237.73 18656.46,17258.73 19480.97,18271.93 19572.50,18277.93 20638.02,17755.89 20728.35,17789.22 20811.57,17870.69 20999.62,17851.11 21612.80,17387.38 21661.21,17384.34 22343.20,17685.77 22511.22,17698.36 22779.38,17703.70 23185.81,17837.68 23598.04,17906.75 24612.90,17811.37 25191.08,17880.19 25208.99,17872.48 25301.03,17605.08 25306.53,17314.43 25383.60,17186.68 25565.59,16764.20 25574.37,16655.82 25574.17,16651.51 25621.00,16407.15 26511.24,12013.08 24519.41,10255.02 24131.64,10086.44 24102.74,9954.61 24051.90,9935.20 18742.10,13776.43 18742.30,13776.35" color="red">
        <tazSource id="-1068729371#0" weight="1.00" />
        <tazSink id="-1068729371#0" weight="1.00" />
        <tazSource id="-1068729371#1" weight="1.00" />
        <tazSink id="-1068729371#1" weight="1.00" />
        <tazSource id="-1068729371#2" weight="1.00" />
        <tazSink id="-1068729371#2" weight="1.00" />
        <tazSource id="-1068735315#0" weight="1.00" />
        <tazSink id="-1068735315#0" weight="1.00" />
        <tazSource id="-1068735315#1" weight="1.00" />
        <tazSink id="-1068735315#1" weight="1.00" />
        <tazSource id="-1069366698" weight="1.00" />
        <tazSink id="-1069366698" weight="1.00" />
        <tazSource id="-1069366702" weight="1.00" />
        <tazSink id="-1069366702" weight="1.00" />
        <tazSource id="-1083273106" weight="1.00" />
        <tazSink id="-1083273106" weight="1.00" />
        <tazSource id="-1085975993" weight="1.00" />
        <tazSink id="-1085975993" weight="1.00" />
        <tazSource id="-1136143562#0" weight="1.00" />
        <tazSink id="-1136143562#0" weight="1.00" />
        <tazSource id="-1136143562#1" weight="1.00" />
        <tazSink id="-1136143562#1" weight="1.00" />
        <tazSource id="-1136143571" weight="1.00" />
        <tazSink id="-1136143571" weight="1.00" />
        <tazSource id="-1136143576" weight="1.00" />
        <tazSink id="-1136143576" weight="1.00" />
        <tazSource id="-1136215938" weight="1.00" />
        <tazSink id="-1136215938" weight="1.00" />
        <tazSource id="-1441870936#1" weight="1.00" />
        <tazSink id="-1441870936#1" weight="1.00" />
        <tazSource id="-1441870936#2" weight="1.00" />
        <tazSink id="-1441870936#2" weight="1.00" />
        <tazSource id="-1441870936#3" weight="1.00" />
        <tazSink id="-1441870936#3" weight="1.00" />
        <tazSource id="-1441870936#4" weight="1.00" />
        <tazSink id="-1441870936#4" weight="1.00" />
        <tazSource id="-1441870936#5" weight="1.00" />
        <tazSink id="-1441870936#5" weight="1.00" />
        <tazSource id="-1441870936#6" weight="1.00" />
        <tazSink id="-1441870936#6" weight="1.00" />
        <tazSource id="-1441870936#7" weight="1.00" />
        <tazSink id="-1441870936#7" weight="1.00" />
        <tazSource id="-1486241205" weight="1.00" />
        <tazSink id="-1486241205" weight="1.00" />
        <tazSource id="-170952338#0" weight="1.00" />
        <tazSink id="-170952338#0" weight="1.00" />
        <tazSource id="-170952338#1" weight="1.00" />
        <tazSink id="-170952338#1" weight="1.00" />
        <tazSource id="-170952338#2" weight="1.00" />
        <tazSink id="-170952338#2" weight="1.00" />
        <tazSource id="-170952338#3" weight="1.00" />
        <tazSink id="-170952338#3" weight="1.00" />
        <tazSource id="-170952338#4" weight="1.00" />
        <tazSink id="-170952338#4" weight="1.00" />
        <tazSource id="-170952338#5" weight="1.00" />
        <tazSink id="-170952338#5" weight="1.00" />
        <tazSource id="-170952349#0" weight="1.00" />
        <tazSink id="-170952349#0" weight="1.00" />
        <tazSource id="-170952349#1" weight="1.00" />
        <tazSink id="-170952349#1" weight="1.00" />
        <tazSource id="-175833050" weight="1.00" />
        <tazSink id="-175833050" weight="1.00" />
        <tazSource id="-185845833#0" weight="1.00" />
        <tazSink id="-185845833#0" weight="1.00" />
        <tazSource id="-185845833#1" weight="1.00" />
        <tazSink id="-185845833#1" weight="1.00" />
        <tazSource id="-185845833#3" weight="1.00" />
        <tazSink id="-185845833#3" weight="1.00" />
        <tazSource id="-18883232#1" weight="1.00" />
        <tazSink id="-18883232#1" weight="1.00" />
        <tazSource id="-18883232#3" weight="1.00" />
        <tazSink id="-18883232#3" weight="1.00" />
        <tazSource id="-208526039" weight="1.00" />
        <tazSink id="-208526039" weight="1.00" />
        <tazSource id="-208526041#0" weight="1.00" />
        <tazSink id="-208526041#0" weight="1.00" />
        <tazSource id="-208526041#1" weight="1.00" />
        <tazSink id="-208526041#1" weight="1.00" />
        <tazSource id="-208526043" weight="1.00" />
        <tazSink id="-208526043" weight="1.00" />
        <tazSource id="-208526044#0" weight="1.00" />
        <tazSink id="-208526044#0" weight="1.00" />
        <tazSource id="-208526044#1" weight="1.00" />
        <tazSink id="-208526044#1" weight="1.00" />
        <tazSource id="-208526046" weight="1.00" />
        <tazSink id="-208526046" weight="1.00" />
        <tazSource id="-208825827#4" weight="1.00" />
        <tazSink id="-208825827#4" weight="1.00" />
        <tazSource id="-208825827#5" weight="1.00" />
        <tazSink id="-208825827#5" weight="1.00" />
        <tazSource id="-208826836" weight="1.00" />
        <tazSink id="-208826836" weight="1.00" />
        <tazSource id="-208826839#0" weight="1.00" />
        <tazSink id="-208826839#0" weight="1.00" />
        <tazSource id="-208826839#1" weight="1.00" />
        <tazSink id="-208826839#1" weight="1.00" />
        <tazSource id="-208826839#2" weight="1.00" />
        <tazSink id="-208826839#2" weight="1.00" />
        <tazSource id="-208826839#3" weight="1.00" />
        <tazSink id="-208826839#3" weight="1.00" />
        <tazSource id="-208826839#4" weight="1.00" />
        <tazSink id="-208826839#4" weight="1.00" />
        <tazSource id="-208826840#0" weight="1.00" />
        <tazSink id="-208826840#0" weight="1.00" />
        <tazSource id="-208826840#1" weight="1.00" />
        <tazSink id="-208826840#1" weight="1.00" />
        <tazSource id="-208826840#2" weight="1.00" />
        <tazSink id="-208826840#2" weight="1.00" />
        <tazSource id="-25418325#0" weight="1.00" />
        <tazSink id="-25418325#0" weight="1.00" />
        <tazSource id="-25418325#1" weight="1.00" />
        <tazSink id="-25418325#1" weight="1.00" />
        <tazSource id="-256980712" weight="1.00" />
        <tazSink id="-256980712" weight="1.00" />
        <tazSource id="-257424360" weight="1.00" />
        <tazSink id="-257424360" weight="1.00" />
        <tazSource id="-257932344#0" weight="1.00" />
        <tazSink id="-257932344#0" weight="1.00" />
        <tazSource id="-307930214" weight="1.00" />
        <tazSink id="-307930214" weight="1.00" />
        <tazSource id="-308081216" weight="1.00" />
        <tazSink id="-308081216" weight="1.00" />
        <tazSource id="-308250435#0" weight="1.00" />
        <tazSink id="-308250435#0" weight="1.00" />
        <tazSource id="-308250435#1" weight="1.00" />
        <tazSink id="-308250435#1" weight="1.00" />
        <tazSource id="-308250435#2" weight="1.00" />
        <tazSink id="-308250435#2" weight="1.00" />
        <tazSource id="-308250435#3" weight="1.00" />
        <tazSink id="-308250435#3" weight="1.00" />
        <tazSource id="-308250436" weight="1.00" />
        <tazSink id="-308250436" weight="1.00" />
        <tazSource id="-31060809#0" weight="1.00" />
        <tazSink id="-31060809#0" weight="1.00" />
        <tazSource id="-31060809#1" weight="1.00" />
        <tazSink id="-31060809#1" weight="1.00" />
        <tazSource id="-31060809#2" weight="1.00" />
        <tazSink id="-31060809#2" weight="1.00" />
        <tazSource id="-315159485#0" weight="1.00" />
        <tazSink id="-315159485#0" weight="1.00" />
        <tazSource id="-315159485#1" weight="1.00" />
        <tazSink id="-315159485#1" weight="1.00" />
        <tazSource id="-315159485#2" weight="1.00" />
        <tazSink id="-315159485#2" weight="1.00" />
        <tazSource id="-315159485#3" weight="1.00" />
        <tazSink id="-315159485#3" weight="1.00" />
        <tazSource id="-315159485#4" weight="1.00" />
        <tazSink id="-315159485#4" weight="1.00" />
        <tazSource id="-315159485#5" weight="1.00" />
        <tazSink id="-315159485#5" weight="1.00" />
        <tazSource id="-315159485#6" weight="1.00" />
        <tazSink id="-315159485#6" weight="1.00" />
        <tazSource id="-315159487#0" weight="1.00" />
        <tazSink id="-315159487#0" weight="1.00" />
        <tazSource id="-315159487#1" weight="1.00" />
        <tazSink id="-315159487#1" weight="1.00" />
        <tazSource id="-315159487#2" weight="1.00" />
        <tazSink id="-315159487#2" weight="1.00" />
        <tazSource id="-315159487#3" weight="1.00" />
        <tazSink id="-315159487#3" weight="1.00" />
        <tazSource id="-315159487#4" weight="1.00" />
        <tazSink id="-315159487#4" weight="1.00" />
        <tazSource id="-315159487#5" weight="1.00" />
        <tazSink id="-315159487#5" weight="1.00" />
        <tazSource id="-315159487#6" weight="1.00" />
        <tazSink id="-315159487#6" weight="1.00" />
        <tazSource id="-315159487#7" weight="1.00" />
        <tazSink id="-315159487#7" weight="1.00" />
        <tazSource id="-315159490" weight="1.00" />
        <tazSink id="-315159490" weight="1.00" />
        <tazSource id="-315159494#1" weight="1.00" />
        <tazSink id="-315159494#1" weight="1.00" />
        <tazSource id="-315159494#2" weight="1.00" />
        <tazSink id="-315159494#2" weight="1.00" />
        <tazSource id="-315159496#0" weight="1.00" />
        <tazSink id="-315159496#0" weight="1.00" />
        <tazSource id="-315159496#1" weight="1.00" />
        <tazSink id="-315159496#1" weight="1.00" />
        <tazSource id="-315159496#2" weight="1.00" />
        <tazSink id="-315159496#2" weight="1.00" />
        <tazSource id="-315159496#3" weight="1.00" />
        <tazSink id="-315159496#3" weight="1.00" />
        <tazSource id="-320549341#0" weight="1.00" />
        <tazSink id="-320549341#0" weight="1.00" />
        <tazSource id="-320549341#1" weight="1.00" />
        <tazSink id="-320549341#1" weight="1.00" />
        <tazSource id="-320549341#2" weight="1.00" />
        <tazSink id="-320549341#2" weight="1.00" />
        <tazSource id="-320549344" weight="1.00" />
        <tazSink id="-320549344" weight="1.00" />
        <tazSource id="-349888201#0" weight="1.00" />
        <tazSink id="-349888201#0" weight="1.00" />
        <tazSource id="-349888201#1" weight="1.00" />
        <tazSink id="-349888201#1" weight="1.00" />
        <tazSource id="-366854450#0" weight="1.00" />
        <tazSink id="-366854450#0" weight="1.00" />
        <tazSource id="-366854450#1" weight="1.00" />
        <tazSink id="-366854450#1" weight="1.00" />
        <tazSource id="-391999126#0" weight="1.00" />
        <tazSink id="-391999126#0" weight="1.00" />
        <tazSource id="-391999126#1" weight="1.00" />
        <tazSink id="-391999126#1" weight="1.00" />
        <tazSource id="-501346487" weight="1.00" />
        <tazSink id="-501346487" weight="1.00" />
        <tazSource id="-501346488#0" weight="1.00" />
        <tazSink id="-501346488#0" weight="1.00" />
        <tazSource id="-501346488#1" weight="1.00" />
        <tazSink id="-501346488#1" weight="1.00" />
        <tazSource id="-501346488#2" weight="1.00" />
        <tazSink id="-501346488#2" weight="1.00" />
        <tazSource id="-501346489#0" weight="1.00" />
        <tazSink id="-501346489#0" weight="1.00" />
        <tazSource id="-501346489#1" weight="1.00" />
        <tazSink id="-501346489#1" weight="1.00" />
        <tazSource id="-501346489#2" weight="1.00" />
        <tazSink id="-501346489#2" weight="1.00" />
        <tazSource id="-502426857#0" weight="1.00" />
        <tazSink id="-502426857#0" weight="1.00" />
        <tazSource id="-502426857#1" weight="1.00" />
        <tazSink id="-502426857#1" weight="1.00" />
        <tazSource id="-502426857#2" weight="1.00" />
        <tazSink id="-502426857#2" weight="1.00" />
        <tazSource id="-502426858" weight="1.00" />
        <tazSink id="-502426858" weight="1.00" />
        <tazSource id="-502426859#0" weight="1.00" />
        <tazSink id="-502426859#0" weight="1.00" />
        <tazSource id="-502426859#1" weight="1.00" />
        <tazSink id="-502426859#1" weight="1.00" />
        <tazSource id="-502426859#2" weight="1.00" />
        <tazSink id="-502426859#2" weight="1.00" />
        <tazSource id="-502426859#4" weight="1.00" />
        <tazSink id="-502426859#4" weight="1.00" />
        <tazSource id="-502426859#5" weight="1.00" />
        <tazSink id="-502426859#5" weight="1.00" />
        <tazSource id="-502426860#0" weight="1.00" />
        <tazSink id="-502426860#0" weight="1.00" />
        <tazSource id="-502426860#1" weight="1.00" />
        <tazSink id="-502426860#1" weight="1.00" />
        <tazSource id="-507648839" weight="1.00" />
        <tazSink id="-507648839" weight="1.00" />
        <tazSource id="-633986854#1" weight="1.00" />
        <tazSink id="-633986854#1" weight="1.00" />
        <tazSource id="-677287119#0" weight="1.00" />
        <tazSink id="-677287119#0" weight="1.00" />
        <tazSource id="-68115526#0" weight="1.00" />
        <tazSink id="-68115526#0" weight="1.00" />
        <tazSource id="-68115526#1" weight="1.00" />
        <tazSink id="-68115526#1" weight="1.00" />
        <tazSource id="-68115532" weight="1.00" />
        <tazSink id="-68115532" weight="1.00" />
        <tazSource id="-69218976#0" weight="1.00" />
        <tazSink id="-69218976#0" weight="1.00" />
        <tazSource id="-69219145" weight="1.00" />
        <tazSink id="-69219145" weight="1.00" />
        <tazSource id="-695907287#0" weight="1.00" />
        <tazSink id="-695907287#0" weight="1.00" />
        <tazSource id="-695907287#1" weight="1.00" />
        <tazSink id="-695907287#1" weight="1.00" />
        <tazSource id="-70696594#0" weight="1.00" />
        <tazSink id="-70696594#0" weight="1.00" />
        <tazSource id="-70696594#1" weight="1.00" />
        <tazSink id="-70696594#1" weight="1.00" />
        <tazSource id="-70702070#0" weight="1.00" />
        <tazSink id="-70702070#0" weight="1.00" />
        <tazSource id="-70702075#0" weight="1.00" />
        <tazSink id="-70702075#0" weight="1.00" />
        <tazSource id="-70702075#1" weight="1.00" />
        <tazSink id="-70702075#1" weight="1.00" />
        <tazSource id="-70702075#3" weight="1.00" />
        <tazSink id="-70702075#3" weight="1.00" />
        <tazSource id="-70702075#4" weight="1.00" />
        <tazSink id="-70702075#4" weight="1.00" />
        <tazSource id="-70702075#5" weight="1.00" />
        <tazSink id="-70702075#5" weight="1.00" />
        <tazSource id="-70703176" weight="1.00" />
        <tazSink id="-70703176" weight="1.00" />
        <tazSource id="-71189943#0" weight="1.00" />
        <tazSink id="-71189943#0" weight="1.00" />
        <tazSource id="-71189943#1" weight="1.00" />
        <tazSink id="-71189943#1" weight="1.00" />
        <tazSource id="-75913814" weight="1.00" />
        <tazSink id="-75913814" weight="1.00" />
        <tazSource id="-769971569#0" weight="1.00" />
        <tazSink id="-769971569#0" weight="1.00" />
        <tazSource id="-842425238" weight="1.00" />
        <tazSink id="-842425238" weight="1.00" />
        <tazSource id="-87104682" weight="1.00" />
        <tazSink id="-87104682" weight="1.00" />
        <tazSource id="-890180063#0" weight="1.00" />
        <tazSink id="-890180063#0" weight="1.00" />
        <tazSource id="-890180063#1" weight="1.00" />
        <tazSink id="-890180063#1" weight="1.00" />
        <tazSource id="-890595899" weight="1.00" />
        <tazSink id="-890595899" weight="1.00" />
        <tazSource id="-890627011" weight="1.00" />
        <tazSink id="-890627011" weight="1.00" />
        <tazSource id="-891010107" weight="1.00" />
        <tazSink id="-891010107" weight="1.00" />
        <tazSource id="-903495400" weight="1.00" />
        <tazSink id="-903495400" weight="1.00" />
        <tazSource id="-967575734" weight="1.00" />
        <tazSink id="-967575734" weight="1.00" />
        <tazSource id="-977972909" weight="1.00" />
        <tazSink id="-977972909" weight="1.00" />
        <tazSource id="-977972910" weight="1.00" />
        <tazSink id="-977972910" weight="1.00" />
        <tazSource id="1068729371#0" weight="1.00" />
        <tazSink id="1068729371#0" weight="1.00" />
        <tazSource id="1068729371#1" weight="1.00" />
        <tazSink id="1068729371#1" weight="1.00" />
        <tazSource id="1068729371#2" weight="1.00" />
        <tazSink id="1068729371#2" weight="1.00" />
        <tazSource id="1068735315#0" weight="1.00" />
        <tazSink id="1068735315#0" weight="1.00" />
        <tazSource id="1068735315#1" weight="1.00" />
        <tazSink id="1068735315#1" weight="1.00" />
        <tazSource id="1069366698" weight="1.00" />
        <tazSink id="1069366698" weight="1.00" />
        <tazSource id="1069366702" weight="1.00" />
        <tazSink id="1069366702" weight="1.00" />
        <tazSource id="1083273106" weight="1.00" />
        <tazSink id="1083273106" weight="1.00" />
        <tazSource id="1136143562#0" weight="1.00" />
        <tazSink id="1136143562#0" weight="1.00" />
        <tazSource id="1136143562#1" weight="1.00" />
        <tazSink id="1136143562#1" weight="1.00" />
        <tazSource id="1136143576" weight="1.00" />
        <tazSink id="1136143576" weight="1.00" />
        <tazSource id="1136215938" weight="1.00" />
        <tazSink id="1136215938" weight="1.00" />
        <tazSource id="1441870936#1" weight="1.00" />
        <tazSink id="1441870936#1" weight="1.00" />
        <tazSource id="1441870936#2" weight="1.00" />
        <tazSink id="1441870936#2" weight="1.00" />
        <tazSource id="1441870936#3" weight="1.00" />
        <tazSink id="1441870936#3" weight="1.00" />
        <tazSource id="1441870936#4" weight="1.00" />
        <tazSink id="1441870936#4" weight="1.00" />
        <tazSource id="1441870936#5" weight="1.00" />
        <tazSink id="1441870936#5" weight="1.00" />
        <tazSource id="1441870936#6" weight="1.00" />
        <tazSink id="1441870936#6" weight="1.00" />
        <tazSource id="1441870936#7" weight="1.00" />
        <tazSink id="1441870936#7" weight="1.00" />
        <tazSource id="170952338#0" weight="1.00" />
        <tazSink id="170952338#0" weight="1.00" />
        <tazSource id="170952338#1" weight="1.00" />
        <tazSink id="170952338#1" weight="1.00" />
        <tazSource id="170952338#2" weight="1.00" />
        <tazSink id="170952338#2" weight="1.00" />
        <tazSource id="170952338#3" weight="1.00" />
        <tazSink id="170952338#3" weight="1.00" />
        <tazSource id="170952338#4" weight="1.00" />
        <tazSink id="170952338#4" weight="1.00" />
        <tazSource id="170952338#5" weight="1.00" />
        <tazSink id="170952338#5" weight="1.00" />
        <tazSource id="170952349#0" weight="1.00" />
        <tazSink id="170952349#0" weight="1.00" />
        <tazSource id="170952349#1" weight="1.00" />
        <tazSink id="170952349#1" weight="1.00" />
        <tazSource id="175833048" weight="1.00" />
        <tazSink id="175833048" weight="1.00" />
        <tazSource id="175833050" weight="1.00" />
        <tazSink id="175833050" weight="1.00" />
        <tazSource id="185845833#0" weight="1.00" />
        <tazSink id="185845833#0" weight="1.00" />
        <tazSource id="185845833#1" weight="1.00" />
        <tazSink id="185845833#1" weight="1.00" />
        <tazSource id="185845833#3" weight="1.00" />
        <tazSink id="185845833#3" weight="1.00" />
        <tazSource id="18883232#1" weight="1.00" />
        <tazSink id="18883232#1" weight="1.00" />
        <tazSource id="18883232#3" weight="1.00" />
        <tazSink id="18883232#3" weight="1.00" />
        <tazSource id="208526039" weight="1.00" />
        <tazSink id="208526039" weight="1.00" />
        <tazSource id="208526041#0" weight="1.00" />
        <tazSink id="208526041#0" weight="1.00" />
        <tazSource id="208526041#1" weight="1.00" />
        <tazSink id="208526041#1" weight="1.00" />
        <tazSource id="208526043" weight="1.00" />
        <tazSink id="208526043" weight="1.00" />
        <tazSource id="208526044#0" weight="1.00" />
        <tazSink id="208526044#0" weight="1.00" />
        <tazSource id="208526044#1" weight="1.00" />
        <tazSink id="208526044#1" weight="1.00" />
        <tazSource id="208526046" weight="1.00" />
        <tazSink id="208526046" weight="1.00" />
        <tazSource id="208825827#3" weight="1.00" />
        <tazSink id="208825827#3" weight="1.00" />
        <tazSource id="208825827#4" weight="1.00" />
        <tazSink id="208825827#4" weight="1.00" />
        <tazSource id="208825827#5" weight="1.00" />
        <tazSink id="208825827#5" weight="1.00" />
        <tazSource id="208826836" weight="1.00" />
        <tazSink id="208826836" weight="1.00" />
        <tazSource id="208826839#0" weight="1.00" />
        <tazSink id="208826839#0" weight="1.00" />
        <tazSource id="208826839#1" weight="1.00" />
        <tazSink id="208826839#1" weight="1.00" />
        <tazSource id="208826839#2" weight="1.00" />
        <tazSink id="208826839#2" weight="1.00" />
        <tazSource id="208826839#3" weight="1.00" />
        <tazSink id="208826839#3" weight="1.00" />
        <tazSource id="208826839#4" weight="1.00" />
        <tazSink id="208826839#4" weight="1.00" />
        <tazSource id="208826839#5" weight="1.00" />
        <tazSink id="208826839#5" weight="1.00" />
        <tazSource id="208826840#1" weight="1.00" />
        <tazSink id="208826840#1" weight="1.00" />
        <tazSource id="208826840#2" weight="1.00" />
        <tazSink id="208826840#2" weight="1.00" />
        <tazSource id="222707279" weight="1.00" />
        <tazSink id="222707279" weight="1.00" />
        <tazSource id="25418325#0" weight="1.00" />
        <tazSink id="25418325#0" weight="1.00" />
        <tazSource id="25418325#1" weight="1.00" />
        <tazSink id="25418325#1" weight="1.00" />
        <tazSource id="256980712" weight="1.00" />
        <tazSink id="256980712" weight="1.00" />
        <tazSource id="257424360" weight="1.00" />
        <tazSink id="257424360" weight="1.00" />
        <tazSource id="257932344#1" weight="1.00" />
        <tazSink id="257932344#1" weight="1.00" />
        <tazSource id="307930214" weight="1.00" />
        <tazSink id="307930214" weight="1.00" />
        <tazSource id="308250435#0" weight="1.00" />
        <tazSink id="308250435#0" weight="1.00" />
        <tazSource id="308250435#1" weight="1.00" />
        <tazSink id="308250435#1" weight="1.00" />
        <tazSource id="308250435#2" weight="1.00" />
        <tazSink id="308250435#2" weight="1.00" />
        <tazSource id="308250435#3" weight="1.00" />
        <tazSink id="308250435#3" weight="1.00" />
        <tazSource id="308250436" weight="1.00" />
        <tazSink id="308250436" weight="1.00" />
        <tazSource id="31060809#0" weight="1.00" />
        <tazSink id="31060809#0" weight="1.00" />
        <tazSource id="31060809#1" weight="1.00" />
        <tazSink id="31060809#1" weight="1.00" />
        <tazSource id="31060809#2" weight="1.00" />
        <tazSink id="31060809#2" weight="1.00" />
        <tazSource id="315159485#0" weight="1.00" />
        <tazSink id="315159485#0" weight="1.00" />
        <tazSource id="315159485#1" weight="1.00" />
        <tazSink id="315159485#1" weight="1.00" />
        <tazSource id="315159485#2" weight="1.00" />
        <tazSink id="315159485#2" weight="1.00" />
        <tazSource id="315159485#3" weight="1.00" />
        <tazSink id="315159485#3" weight="1.00" />
        <tazSource id="315159485#4" weight="1.00" />
        <tazSink id="315159485#4" weight="1.00" />
        <tazSource id="315159485#5" weight="1.00" />
        <tazSink id="315159485#5" weight="1.00" />
        <tazSource id="315159485#6" weight="1.00" />
        <tazSink id="315159485#6" weight="1.00" />
        <tazSource id="315159487#0" weight="1.00" />
        <tazSink id="315159487#0" weight="1.00" />
        <tazSource id="315159487#1" weight="1.00" />
        <tazSink id="315159487#1" weight="1.00" />
        <tazSource id="315159487#2" weight="1.00" />
        <tazSink id="315159487#2" weight="1.00" />
        <tazSource id="315159487#3" weight="1.00" />
        <tazSink id="315159487#3" weight="1.00" />
        <tazSource id="315159487#4" weight="1.00" />
        <tazSink id="315159487#4" weight="1.00" />
        <tazSource id="315159487#5" weight="1.00" />
        <tazSink id="315159487#5" weight="1.00" />
        <tazSource id="315159487#6" weight="1.00" />
        <tazSink id="315159487#6" weight="1.00" />
        <tazSource id="315159487#7" weight="1.00" />
        <tazSink id="315159487#7" weight="1.00" />
        <tazSource id="315159490" weight="1.00" />
        <tazSink id="315159490" weight="1.00" />
        <tazSource id="315159494#1" weight="1.00" />
        <tazSink id="315159494#1" weight="1.00" />
        <tazSource id="315159494#2" weight="1.00" />
        <tazSink id="315159494#2" weight="1.00" />
        <tazSource id="315159496#0" weight="1.00" />
        <tazSink id="315159496#0" weight="1.00" />
        <tazSource id="315159496#1" weight="1.00" />
        <tazSink id="315159496#1" weight="1.00" />
        <tazSource id="315159496#2" weight="1.00" />
        <tazSink id="315159496#2" weight="1.00" />
        <tazSource id="315159496#3" weight="1.00" />
        <tazSink id="315159496#3" weight="1.00" />
        <tazSource id="320549341#0" weight="1.00" />
        <tazSink id="320549341#0" weight="1.00" />
        <tazSource id="320549341#1" weight="1.00" />
        <tazSink id="320549341#1" weight="1.00" />
        <tazSource id="320549341#2" weight="1.00" />
        <tazSink id="320549341#2" weight="1.00" />
        <tazSource id="320549344" weight="1.00" />
        <tazSink id="320549344" weight="1.00" />
        <tazSource id="349887484" weight="1.00" />
        <tazSink id="349887484" weight="1.00" />
        <tazSource id="349888201#0" weight="1.00" />
        <tazSink id="349888201#0" weight="1.00" />
        <tazSource id="349888201#1" weight="1.00" />
        <tazSink id="349888201#1" weight="1.00" />
        <tazSource id="366854450#1" weight="1.00" />
        <tazSink id="366854450#1" weight="1.00" />
        <tazSource id="391999126#0" weight="1.00" />
        <tazSink id="391999126#0" weight="1.00" />
        <tazSource id="391999126#1" weight="1.00" />
        <tazSink id="391999126#1" weight="1.00" />
        <tazSource id="430248865#14" weight="1.00" />
        <tazSink id="430248865#14" weight="1.00" />
        <tazSource id="501346487" weight="1.00" />
        <tazSink id="501346487" weight="1.00" />
        <tazSource id="501346488#0" weight="1.00" />
        <tazSink id="501346488#0" weight="1.00" />
        <tazSource id="501346488#1" weight="1.00" />
        <tazSink id="501346488#1" weight="1.00" />
        <tazSource id="501346488#2" weight="1.00" />
        <tazSink id="501346488#2" weight="1.00" />
        <tazSource id="501346489#0" weight="1.00" />
        <tazSink id="501346489#0" weight="1.00" />
        <tazSource id="501346489#1" weight="1.00" />
        <tazSink id="501346489#1" weight="1.00" />
        <tazSource id="501346489#2" weight="1.00" />
        <tazSink id="501346489#2" weight="1.00" />
        <tazSource id="502426857#0" weight="1.00" />
        <tazSink id="502426857#0" weight="1.00" />
        <tazSource id="502426857#1" weight="1.00" />
        <tazSink id="502426857#1" weight="1.00" />
        <tazSource id="502426857#2" weight="1.00" />
        <tazSink id="502426857#2" weight="1.00" />
        <tazSource id="502426858" weight="1.00" />
        <tazSink id="502426858" weight="1.00" />
        <tazSource id="502426859#0" weight="1.00" />
        <tazSink id="502426859#0" weight="1.00" />
        <tazSource id="502426859#1" weight="1.00" />
        <tazSink id="502426859#1" weight="1.00" />
        <tazSource id="502426859#2" weight="1.00" />
        <tazSink id="502426859#2" weight="1.00" />
        <tazSource id="502426859#4" weight="1.00" />
        <tazSink id="502426859#4" weight="1.00" />
        <tazSource id="502426859#5" weight="1.00" />
        <tazSink id="502426859#5" weight="1.00" />
        <tazSource id="502426860#0" weight="1.00" />
        <tazSink id="502426860#0" weight="1.00" />
        <tazSource id="502426860#1" weight="1.00" />
        <tazSink id="502426860#1" weight="1.00" />
        <tazSource id="502426860#3" weight="1.00" />
        <tazSink id="502426860#3" weight="1.00" />
        <tazSource id="502426861" weight="1.00" />
        <tazSink id="502426861" weight="1.00" />
        <tazSource id="507648839" weight="1.00" />
        <tazSink id="507648839" weight="1.00" />
        <tazSource id="633986854#1" weight="1.00" />
        <tazSink id="633986854#1" weight="1.00" />
        <tazSource id="677287119#1" weight="1.00" />
        <tazSink id="677287119#1" weight="1.00" />
        <tazSource id="68115526#0" weight="1.00" />
        <tazSink id="68115526#0" weight="1.00" />
        <tazSource id="68115526#1" weight="1.00" />
        <tazSink id="68115526#1" weight="1.00" />